# generated using pymatgen
data_ID_0
_symmetry_space_group_name_H-M   Pmm2
_cell_length_a   2.63230534
_cell_length_b   9.13343814
_cell_length_c   5.18860742
_cell_angle_alpha   90.00000000
_cell_angle_beta   90.00000000
_cell_angle_gamma   90.00000000
_symmetry_Int_Tables_number   25
_chemical_formula_structural   CuAu
_cell_volume   124.74448927
_cell_formula_units_Z   4
loop_
 _symmetry_equiv_pos_site_id
 _symmetry_equiv_pos_as_xyz
  1  'x, y, z'
  2  '-x, -y, z'
  3  '-x, y, z'
  4  'x, -y, z'
loop_
 _atom_site_type_symbol
 _atom_site_label
 _atom_site_symmetry_multiplicity
 _atom_site_fract_x
 _atom_site_fract_y
 _atom_site_fract_z
 _atom_site_occupancy
  Cu  Cu0  2  0.00000000  0.24704573  0.11137718  1
  Cu  Cu1  1  0.00000000  0.00000000  0.36883639  1
  Cu  Cu2  1  0.50000000  0.50000000  0.84293220  1
  Au  Au3  2  0.00000000  0.26257524  0.61765198  1
  Au  Au4  1  0.00000000  0.00000000  0.87019623  1
  Au  Au5  1  0.00000000  0.50000000  0.31148607  1
# generated using pymatgen
data_ID_1
_symmetry_space_group_name_H-M   P4_2mc
_cell_length_a   5.08816421
_cell_length_b   5.08816421
_cell_length_c   9.28224845
_cell_angle_alpha   90.00000000
_cell_angle_beta   90.00000000
_cell_angle_gamma   90.00000000
_symmetry_Int_Tables_number   105
_chemical_formula_structural   CuAu
_cell_volume   240.31198267
_cell_formula_units_Z   8
loop_
 _symmetry_equiv_pos_site_id
 _symmetry_equiv_pos_as_xyz
  1  'x, y, z'
  2  '-y, x, z+1/2'
  3  '-x, -y, z'
  4  'y, -x, z+1/2'
  5  '-x, y, z'
  6  'y, x, z+1/2'
  7  'x, -y, z'
  8  '-y, -x, z+1/2'
loop_
 _atom_site_type_symbol
 _atom_site_label
 _atom_site_symmetry_multiplicity
 _atom_site_fract_x
 _atom_site_fract_y
 _atom_site_fract_z
 _atom_site_occupancy
  Cu  Cu0  4  0.00000000  0.24259403  0.18439152  1
  Cu  Cu1  2  0.00000000  0.00000000  0.43440126  1
  Cu  Cu2  2  0.50000000  0.50000000  0.14243749  1
  Au  Au3  4  0.24943475  0.50000000  0.39373980  1
  Au  Au4  2  0.00000000  0.50000000  0.66119623  1
  Au  Au5  2  0.00000000  0.50000000  0.94638669  1
# generated using pymatgen
data_ID_2
_symmetry_space_group_name_H-M   I4/mcm
_cell_length_a   6.96369589
_cell_length_b   6.96369589
_cell_length_c   5.23357411
_cell_angle_alpha   90.00000000
_cell_angle_beta   90.00000000
_cell_angle_gamma   90.00000000
_symmetry_Int_Tables_number   140
_chemical_formula_structural   CuAu
_cell_volume   253.79202614
_cell_formula_units_Z   8
loop_
 _symmetry_equiv_pos_site_id
 _symmetry_equiv_pos_as_xyz
  1  'x, y, z'
  2  '-x, -y, -z'
  3  '-y, x, z'
  4  'y, -x, -z'
  5  '-x, -y, z'
  6  'x, y, -z'
  7  'y, -x, z'
  8  '-y, x, -z'
  9  'x, -y, -z+1/2'
  10  '-x, y, z+1/2'
  11  '-y, -x, -z+1/2'
  12  'y, x, z+1/2'
  13  '-x, y, -z+1/2'
  14  'x, -y, z+1/2'
  15  'y, x, -z+1/2'
  16  '-y, -x, z+1/2'
  17  'x+1/2, y+1/2, z+1/2'
  18  '-x+1/2, -y+1/2, -z+1/2'
  19  '-y+1/2, x+1/2, z+1/2'
  20  'y+1/2, -x+1/2, -z+1/2'
  21  '-x+1/2, -y+1/2, z+1/2'
  22  'x+1/2, y+1/2, -z+1/2'
  23  'y+1/2, -x+1/2, z+1/2'
  24  '-y+1/2, x+1/2, -z+1/2'
  25  'x+1/2, -y+1/2, -z'
  26  '-x+1/2, y+1/2, z'
  27  '-y+1/2, -x+1/2, -z'
  28  'y+1/2, x+1/2, z'
  29  '-x+1/2, y+1/2, -z'
  30  'x+1/2, -y+1/2, z'
  31  'y+1/2, x+1/2, -z'
  32  '-y+1/2, -x+1/2, z'
loop_
 _atom_site_type_symbol
 _atom_site_label
 _atom_site_symmetry_multiplicity
 _atom_site_fract_x
 _atom_site_fract_y
 _atom_site_fract_z
 _atom_site_occupancy
  Cu  Cu0  4  0.00000000  0.00000000  0.00000000  1
  Cu  Cu1  4  0.00000000  0.50000000  0.25000000  1
  Au  Au2  8  0.24924503  0.25075497  0.50000000  1
# generated using pymatgen
data_ID_3
_symmetry_space_group_name_H-M   P-6m2
_cell_length_a   7.82214192
_cell_length_b   7.82214192
_cell_length_c   2.62604920
_cell_angle_alpha   90.00000000
_cell_angle_beta   90.00000000
_cell_angle_gamma   120.00000000
_symmetry_Int_Tables_number   187
_chemical_formula_structural   CuAu
_cell_volume   139.15053224
_cell_formula_units_Z   4
loop_
 _symmetry_equiv_pos_site_id
 _symmetry_equiv_pos_as_xyz
  1  'x, y, z'
  2  '-x+y, -x, -z'
  3  '-y, x-y, z'
  4  'x, y, -z'
  5  '-x+y, -x, z'
  6  '-y, x-y, -z'
  7  '-y, -x, -z'
  8  'x, x-y, z'
  9  '-x+y, y, -z'
  10  '-y, -x, z'
  11  'x, x-y, -z'
  12  '-x+y, y, z'
loop_
 _atom_site_type_symbol
 _atom_site_label
 _atom_site_symmetry_multiplicity
 _atom_site_fract_x
 _atom_site_fract_y
 _atom_site_fract_z
 _atom_site_occupancy
  Cu  Cu0  3  0.17271870  0.34543741  0.00000000  1
  Cu  Cu1  1  0.00000000  0.00000000  0.00000000  1
  Au  Au2  3  0.42485976  0.21242988  0.00000000  1
  Au  Au3  1  0.33333333  0.66666667  0.50000000  1
# generated using pymatgen
data_ID_4
_symmetry_space_group_name_H-M   P4_32_12
_cell_length_a   10.08143618
_cell_length_b   10.08143618
_cell_length_c   2.67581202
_cell_angle_alpha   90.00000000
_cell_angle_beta   90.00000000
_cell_angle_gamma   90.00000000
_symmetry_Int_Tables_number   96
_chemical_formula_structural   CuAu
_cell_volume   271.95710585
_cell_formula_units_Z   8
loop_
 _symmetry_equiv_pos_site_id
 _symmetry_equiv_pos_as_xyz
  1  'x, y, z'
  2  '-y+1/2, x+1/2, z+3/4'
  3  '-x, -y, z+1/2'
  4  'y+1/2, -x+1/2, z+1/4'
  5  'x+1/2, -y+1/2, -z+1/4'
  6  '-y, -x, -z+1/2'
  7  '-x+1/2, y+1/2, -z+3/4'
  8  'y, x, -z'
loop_
 _atom_site_type_symbol
 _atom_site_label
 _atom_site_symmetry_multiplicity
 _atom_site_fract_x
 _atom_site_fract_y
 _atom_site_fract_z
 _atom_site_occupancy
  Cu  Cu0  8  0.11609273  0.62053067  0.89511641  1
  Au  Au1  8  0.00978537  0.18086001  0.75258758  1
# generated using pymatgen
data_ID_5
_symmetry_space_group_name_H-M   C222_1
_cell_length_a   4.67396172
_cell_length_b   14.01979942
_cell_length_c   7.53264488
_cell_angle_alpha   90.00000000
_cell_angle_beta   90.00000000
_cell_angle_gamma   90.00000000
_symmetry_Int_Tables_number   20
_chemical_formula_structural   CuAu
_cell_volume   493.59919784
_cell_formula_units_Z   16
loop_
 _symmetry_equiv_pos_site_id
 _symmetry_equiv_pos_as_xyz
  1  'x, y, z'
  2  '-x, -y, z+1/2'
  3  'x, -y, -z'
  4  '-x, y, -z+1/2'
  5  'x+1/2, y+1/2, z'
  6  '-x+1/2, -y+1/2, z+1/2'
  7  'x+1/2, -y+1/2, -z'
  8  '-x+1/2, y+1/2, -z+1/2'
loop_
 _atom_site_type_symbol
 _atom_site_label
 _atom_site_symmetry_multiplicity
 _atom_site_fract_x
 _atom_site_fract_y
 _atom_site_fract_z
 _atom_site_occupancy
  Cu  Cu0  8  0.04756592  0.36336858  0.09077837  1
  Cu  Cu1  8  0.23221361  0.46828573  0.83497483  1
  Au  Au2  8  0.02559122  0.18117182  0.05760500  1
  Au  Au3  4  0.00000000  0.29231231  0.75000000  1
  Au  Au4  4  0.21754648  0.00000000  0.00000000  1
# generated using pymatgen
data_ID_6
_symmetry_space_group_name_H-M   P4mm
_cell_length_a   9.95875811
_cell_length_b   9.95875811
_cell_length_c   2.68135635
_cell_angle_alpha   90.00000000
_cell_angle_beta   90.00000000
_cell_angle_gamma   90.00000000
_symmetry_Int_Tables_number   99
_chemical_formula_structural   CuAu
_cell_volume   265.92851113
_cell_formula_units_Z   8
loop_
 _symmetry_equiv_pos_site_id
 _symmetry_equiv_pos_as_xyz
  1  'x, y, z'
  2  '-y, x, z'
  3  '-x, -y, z'
  4  'y, -x, z'
  5  '-x, y, z'
  6  'y, x, z'
  7  'x, -y, z'
  8  '-y, -x, z'
loop_
 _atom_site_type_symbol
 _atom_site_label
 _atom_site_symmetry_multiplicity
 _atom_site_fract_x
 _atom_site_fract_y
 _atom_site_fract_z
 _atom_site_occupancy
  Cu  Cu0  8  0.19967453  0.37439410  0.54845394  1
  Au  Au1  4  0.00000000  0.23787752  0.05962919  1
  Au  Au2  2  0.00000000  0.50000000  0.04213554  1
  Au  Au3  1  0.00000000  0.00000000  0.56009707  1
  Au  Au4  1  0.50000000  0.50000000  0.54848779  1
# generated using pymatgen
data_ID_7
_symmetry_space_group_name_H-M   Pm-3m
_cell_length_a   3.02639531
_cell_length_b   3.02639531
_cell_length_c   3.02639531
_cell_angle_alpha   90.00000000
_cell_angle_beta   90.00000000
_cell_angle_gamma   90.00000000
_symmetry_Int_Tables_number   221
_chemical_formula_structural   CuAu
_cell_volume   27.71896211
_cell_formula_units_Z   1
loop_
 _symmetry_equiv_pos_site_id
 _symmetry_equiv_pos_as_xyz
  1  'x, y, z'
  2  '-x, -y, -z'
  3  '-y, x, z'
  4  'y, -x, -z'
  5  '-x, -y, z'
  6  'x, y, -z'
  7  'y, -x, z'
  8  '-y, x, -z'
  9  'x, -y, -z'
  10  '-x, y, z'
  11  '-y, -x, -z'
  12  'y, x, z'
  13  '-x, y, -z'
  14  'x, -y, z'
  15  'y, x, -z'
  16  '-y, -x, z'
  17  'z, x, y'
  18  '-z, -x, -y'
  19  'z, -y, x'
  20  '-z, y, -x'
  21  'z, -x, -y'
  22  '-z, x, y'
  23  'z, y, -x'
  24  '-z, -y, x'
  25  '-z, x, -y'
  26  'z, -x, y'
  27  '-z, -y, -x'
  28  'z, y, x'
  29  '-z, -x, y'
  30  'z, x, -y'
  31  '-z, y, x'
  32  'z, -y, -x'
  33  'y, z, x'
  34  '-y, -z, -x'
  35  'x, z, -y'
  36  '-x, -z, y'
  37  '-y, z, -x'
  38  'y, -z, x'
  39  '-x, z, y'
  40  'x, -z, -y'
  41  '-y, -z, x'
  42  'y, z, -x'
  43  '-x, -z, -y'
  44  'x, z, y'
  45  'y, -z, -x'
  46  '-y, z, x'
  47  'x, -z, y'
  48  '-x, z, -y'
loop_
 _atom_site_type_symbol
 _atom_site_label
 _atom_site_symmetry_multiplicity
 _atom_site_fract_x
 _atom_site_fract_y
 _atom_site_fract_z
 _atom_site_occupancy
  Cu  Cu0  1  0.50000000  0.50000000  0.50000000  1
  Au  Au1  1  0.00000000  0.00000000  0.00000000  1
# generated using pymatgen
data_ID_8
_symmetry_space_group_name_H-M   P4/mmm
_cell_length_a   2.80280335
_cell_length_b   2.80280335
_cell_length_c   3.55954121
_cell_angle_alpha   90.00000000
_cell_angle_beta   90.00000000
_cell_angle_gamma   90.00000000
_symmetry_Int_Tables_number   123
_chemical_formula_structural   CuAu
_cell_volume   27.96271143
_cell_formula_units_Z   1
loop_
 _symmetry_equiv_pos_site_id
 _symmetry_equiv_pos_as_xyz
  1  'x, y, z'
  2  '-x, -y, -z'
  3  '-y, x, z'
  4  'y, -x, -z'
  5  '-x, -y, z'
  6  'x, y, -z'
  7  'y, -x, z'
  8  '-y, x, -z'
  9  'x, -y, -z'
  10  '-x, y, z'
  11  '-y, -x, -z'
  12  'y, x, z'
  13  '-x, y, -z'
  14  'x, -y, z'
  15  'y, x, -z'
  16  '-y, -x, z'
loop_
 _atom_site_type_symbol
 _atom_site_label
 _atom_site_symmetry_multiplicity
 _atom_site_fract_x
 _atom_site_fract_y
 _atom_site_fract_z
 _atom_site_occupancy
  Cu  Cu0  1  0.50000000  0.50000000  0.50000000  1
  Au  Au1  1  0.00000000  0.00000000  0.00000000  1
# generated using pymatgen
data_ID_9
_symmetry_space_group_name_H-M   I4_1/a
_cell_length_a   10.09733144
_cell_length_b   10.09733144
_cell_length_c   5.24819074
_cell_angle_alpha   90.00000000
_cell_angle_beta   90.00000000
_cell_angle_gamma   90.00000000
_symmetry_Int_Tables_number   88
_chemical_formula_structural   CuAu
_cell_volume   535.08507240
_cell_formula_units_Z   16
loop_
 _symmetry_equiv_pos_site_id
 _symmetry_equiv_pos_as_xyz
  1  'x, y, z'
  2  '-y, x+1/2, z+1/4'
  3  '-x+1/2, -y+1/2, z+1/2'
  4  'y+1/2, -x, z+3/4'
  5  '-x, -y+1/2, -z+1/4'
  6  'y, -x, -z'
  7  'x+1/2, y, -z+3/4'
  8  '-y+1/2, x+1/2, -z+1/2'
  9  'x+1/2, y+1/2, z+1/2'
  10  '-y+1/2, x, z+3/4'
  11  '-x, -y, z'
  12  'y, -x+1/2, z+1/4'
  13  '-x+1/2, -y, -z+3/4'
  14  'y+1/2, -x+1/2, -z+1/2'
  15  'x, y+1/2, -z+1/4'
  16  '-y, x, -z'
loop_
 _atom_site_type_symbol
 _atom_site_label
 _atom_site_symmetry_multiplicity
 _atom_site_fract_x
 _atom_site_fract_y
 _atom_site_fract_z
 _atom_site_occupancy
  Cu  Cu0  16  0.11107207  0.21149943  0.67870575  1
  Au  Au1  8  0.00000000  0.25000000  0.12500000  1
  Au  Au2  4  0.00000000  0.00000000  0.00000000  1
  Au  Au3  4  0.00000000  0.00000000  0.50000000  1
