# generated using pymatgen
data_ID_0
_symmetry_space_group_name_H-M   P4mm
_cell_length_a   5.67201768
_cell_length_b   5.67201768
_cell_length_c   21.47169266
_cell_angle_alpha   90.00000000
_cell_angle_beta   90.00000000
_cell_angle_gamma   90.00000000
_symmetry_Int_Tables_number   99
_chemical_formula_structural   Si
_cell_volume   690.78267016
_cell_formula_units_Z   8
loop_
 _symmetry_equiv_pos_site_id
 _symmetry_equiv_pos_as_xyz
  1  'x, y, z'
  2  '-y, x, z'
  3  '-x, -y, z'
  4  'y, -x, z'
  5  '-x, y, z'
  6  'y, x, z'
  7  'x, -y, z'
  8  '-y, -x, z'
loop_
 _atom_site_type_symbol
 _atom_site_label
 _atom_site_symmetry_multiplicity
 _atom_site_fract_x
 _atom_site_fract_y
 _atom_site_fract_z
 _atom_site_occupancy
  Si  Si0  4  0.20877608  0.50000000  0.27487518  1
  Si  Si1  2  0.00000000  0.50000000  0.37066203  1
  Si  Si2  1  0.00000000  0.00000000  0.76235178  1
  Si  Si3  1  0.00000000  0.00000000  0.86456529  1
# generated using pymatgen
data_ID_1
_symmetry_space_group_name_H-M   Cmmm
_cell_length_a   4.69957522
_cell_length_b   14.57483539
_cell_length_c   3.82661851
_cell_angle_alpha   90.00000000
_cell_angle_beta   90.00000000
_cell_angle_gamma   90.00000000
_symmetry_Int_Tables_number   65
_chemical_formula_structural   Si
_cell_volume   262.10628296
_cell_formula_units_Z   8
loop_
 _symmetry_equiv_pos_site_id
 _symmetry_equiv_pos_as_xyz
  1  'x, y, z'
  2  '-x, -y, -z'
  3  '-x, -y, z'
  4  'x, y, -z'
  5  'x, -y, -z'
  6  '-x, y, z'
  7  '-x, y, -z'
  8  'x, -y, z'
  9  'x+1/2, y+1/2, z'
  10  '-x+1/2, -y+1/2, -z'
  11  '-x+1/2, -y+1/2, z'
  12  'x+1/2, y+1/2, -z'
  13  'x+1/2, -y+1/2, -z'
  14  '-x+1/2, y+1/2, z'
  15  '-x+1/2, y+1/2, -z'
  16  'x+1/2, -y+1/2, z'
loop_
 _atom_site_type_symbol
 _atom_site_label
 _atom_site_symmetry_multiplicity
 _atom_site_fract_x
 _atom_site_fract_y
 _atom_site_fract_z
 _atom_site_occupancy
  Si  Si0  4  0.00000000  0.40457502  0.00000000  1
  Si  Si1  2  0.00000000  0.00000000  0.50000000  1
  Si  Si2  2  0.00000000  0.50000000  0.50000000  1
# generated using pymatgen
data_ID_2
_symmetry_space_group_name_H-M   F222
_cell_length_a   5.19075200
_cell_length_b   7.20634069
_cell_length_c   15.68119417
_cell_angle_alpha   90.00000000
_cell_angle_beta   90.00000000
_cell_angle_gamma   90.00000000
_symmetry_Int_Tables_number   22
_chemical_formula_structural   Si
_cell_volume   586.57588278
_cell_formula_units_Z   32
loop_
 _symmetry_equiv_pos_site_id
 _symmetry_equiv_pos_as_xyz
  1  'x, y, z'
  2  '-x, -y, z'
  3  'x, -y, -z'
  4  '-x, y, -z'
  5  'x+1/2, y, z+1/2'
  6  '-x+1/2, -y, z+1/2'
  7  'x+1/2, -y, -z+1/2'
  8  '-x+1/2, y, -z+1/2'
  9  'x+1/2, y+1/2, z'
  10  '-x+1/2, -y+1/2, z'
  11  'x+1/2, -y+1/2, -z'
  12  '-x+1/2, y+1/2, -z'
  13  'x, y+1/2, z+1/2'
  14  '-x, -y+1/2, z+1/2'
  15  'x, -y+1/2, -z+1/2'
  16  '-x, y+1/2, -z+1/2'
loop_
 _atom_site_type_symbol
 _atom_site_label
 _atom_site_symmetry_multiplicity
 _atom_site_fract_x
 _atom_site_fract_y
 _atom_site_fract_z
 _atom_site_occupancy
  Si  Si0  16  0.03174917  0.19269895  0.86675267  1
  Si  Si1  8  0.00000000  0.00000000  0.42672712  1
  Si  Si2  4  0.00000000  0.00000000  0.00000000  1
  Si  Si3  4  0.25000000  0.25000000  0.25000000  1
# generated using pymatgen
data_ID_3
_symmetry_space_group_name_H-M   P4_2/mmc
_cell_length_a   2.53386438
_cell_length_b   2.53386438
_cell_length_c   9.40690646
_cell_angle_alpha   90.00000000
_cell_angle_beta   90.00000000
_cell_angle_gamma   90.00000000
_symmetry_Int_Tables_number   131
_chemical_formula_structural   Si
_cell_volume   60.39674866
_cell_formula_units_Z   4
loop_
 _symmetry_equiv_pos_site_id
 _symmetry_equiv_pos_as_xyz
  1  'x, y, z'
  2  '-x, -y, -z'
  3  '-y, x, z+1/2'
  4  'y, -x, -z+1/2'
  5  '-x, -y, z'
  6  'x, y, -z'
  7  'y, -x, z+1/2'
  8  '-y, x, -z+1/2'
  9  'x, -y, -z'
  10  '-x, y, z'
  11  '-y, -x, -z+1/2'
  12  'y, x, z+1/2'
  13  '-x, y, -z'
  14  'x, -y, z'
  15  'y, x, -z+1/2'
  16  '-y, -x, z+1/2'
loop_
 _atom_site_type_symbol
 _atom_site_label
 _atom_site_symmetry_multiplicity
 _atom_site_fract_x
 _atom_site_fract_y
 _atom_site_fract_z
 _atom_site_occupancy
  Si  Si0  2  0.00000000  0.50000000  0.50000000  1
  Si  Si1  2  0.50000000  0.50000000  0.25000000  1
# generated using pymatgen
data_ID_4
_symmetry_space_group_name_H-M   P-4n2
_cell_length_a   6.85336688
_cell_length_b   6.85336688
_cell_length_c   2.59878185
_cell_angle_alpha   90.00000000
_cell_angle_beta   90.00000000
_cell_angle_gamma   90.00000000
_symmetry_Int_Tables_number   118
_chemical_formula_structural   Si
_cell_volume   122.06124275
_cell_formula_units_Z   8
loop_
 _symmetry_equiv_pos_site_id
 _symmetry_equiv_pos_as_xyz
  1  'x, y, z'
  2  'y, -x, -z'
  3  '-x, -y, z'
  4  '-y, x, -z'
  5  '-x+1/2, y+1/2, z+1/2'
  6  '-y+1/2, -x+1/2, -z+1/2'
  7  'x+1/2, -y+1/2, z+1/2'
  8  'y+1/2, x+1/2, -z+1/2'
loop_
 _atom_site_type_symbol
 _atom_site_label
 _atom_site_symmetry_multiplicity
 _atom_site_fract_x
 _atom_site_fract_y
 _atom_site_fract_z
 _atom_site_occupancy
  Si  Si0  4  0.24310699  0.25689301  0.75000000  1
  Si  Si1  2  0.00000000  0.00000000  0.00000000  1
  Si  Si2  2  0.00000000  0.50000000  0.25000000  1
# generated using pymatgen
data_ID_5
_symmetry_space_group_name_H-M   P4/mmm
_cell_length_a   6.86939172
_cell_length_b   6.86939172
_cell_length_c   5.31896491
_cell_angle_alpha   90.00000000
_cell_angle_beta   90.00000000
_cell_angle_gamma   90.00000000
_symmetry_Int_Tables_number   123
_chemical_formula_structural   Si
_cell_volume   250.99420224
_cell_formula_units_Z   8
loop_
 _symmetry_equiv_pos_site_id
 _symmetry_equiv_pos_as_xyz
  1  'x, y, z'
  2  '-x, -y, -z'
  3  '-y, x, z'
  4  'y, -x, -z'
  5  '-x, -y, z'
  6  'x, y, -z'
  7  'y, -x, z'
  8  '-y, x, -z'
  9  'x, -y, -z'
  10  '-x, y, z'
  11  '-y, -x, -z'
  12  'y, x, z'
  13  '-x, y, -z'
  14  'x, -y, z'
  15  'y, x, -z'
  16  '-y, -x, z'
loop_
 _atom_site_type_symbol
 _atom_site_label
 _atom_site_symmetry_multiplicity
 _atom_site_fract_x
 _atom_site_fract_y
 _atom_site_fract_z
 _atom_site_occupancy
  Si  Si0  4  0.00000000  0.50000000  0.28987039  1
  Si  Si1  4  0.25402886  0.50000000  0.00000000  1
# generated using pymatgen
data_ID_6
_symmetry_space_group_name_H-M   Cmme
_cell_length_a   4.87369791
_cell_length_b   9.20668154
_cell_length_c   7.23186065
_cell_angle_alpha   90.00000000
_cell_angle_beta   90.00000000
_cell_angle_gamma   90.00000000
_symmetry_Int_Tables_number   67
_chemical_formula_structural   Si
_cell_volume   324.49781478
_cell_formula_units_Z   16
loop_
 _symmetry_equiv_pos_site_id
 _symmetry_equiv_pos_as_xyz
  1  'x, y, z'
  2  '-x, -y, -z'
  3  '-x+1/2, -y, z'
  4  'x+1/2, y, -z'
  5  'x, -y, -z'
  6  '-x, y, z'
  7  '-x+1/2, y, -z'
  8  'x+1/2, -y, z'
  9  'x+1/2, y+1/2, z'
  10  '-x+1/2, -y+1/2, -z'
  11  '-x, -y+1/2, z'
  12  'x, y+1/2, -z'
  13  'x+1/2, -y+1/2, -z'
  14  '-x+1/2, y+1/2, z'
  15  '-x, y+1/2, -z'
  16  'x, -y+1/2, z'
loop_
 _atom_site_type_symbol
 _atom_site_label
 _atom_site_symmetry_multiplicity
 _atom_site_fract_x
 _atom_site_fract_y
 _atom_site_fract_z
 _atom_site_occupancy
  Si  Si0  8  0.00000000  0.03542663  0.66266588  1
  Si  Si1  4  0.00000000  0.00000000  0.00000000  1
  Si  Si2  4  0.25000000  0.25000000  0.00000000  1
# generated using pymatgen
data_ID_7
_symmetry_space_group_name_H-M   P6mm
_cell_length_a   4.70104665
_cell_length_b   4.70104665
_cell_length_c   9.99660589
_cell_angle_alpha   90.00000000
_cell_angle_beta   90.00000000
_cell_angle_gamma   120.00000000
_symmetry_Int_Tables_number   183
_chemical_formula_structural   Si
_cell_volume   191.32526501
_cell_formula_units_Z   8
loop_
 _symmetry_equiv_pos_site_id
 _symmetry_equiv_pos_as_xyz
  1  'x, y, z'
  2  'x-y, x, z'
  3  '-y, x-y, z'
  4  '-x, -y, z'
  5  '-x+y, -x, z'
  6  'y, -x+y, z'
  7  'y, x, z'
  8  'x, x-y, z'
  9  'x-y, -y, z'
  10  '-y, -x, z'
  11  '-x, -x+y, z'
  12  '-x+y, y, z'
loop_
 _atom_site_type_symbol
 _atom_site_label
 _atom_site_symmetry_multiplicity
 _atom_site_fract_x
 _atom_site_fract_y
 _atom_site_fract_z
 _atom_site_occupancy
  Si  Si0  3  0.00000000  0.50000000  0.21600973  1
  Si  Si1  2  0.33333333  0.66666667  0.43980153  1
  Si  Si2  2  0.33333333  0.66666667  0.97959818  1
  Si  Si3  1  0.00000000  0.00000000  0.95595930  1
# generated using pymatgen
data_ID_8
_symmetry_space_group_name_H-M   C2/m
_cell_length_a   6.99592231
_cell_length_b   9.13341356
_cell_length_c   4.83397916
_cell_angle_alpha   90.00000000
_cell_angle_beta   93.48801379
_cell_angle_gamma   90.00000000
_symmetry_Int_Tables_number   12
_chemical_formula_structural   Si
_cell_volume   308.30290643
_cell_formula_units_Z   16
loop_
 _symmetry_equiv_pos_site_id
 _symmetry_equiv_pos_as_xyz
  1  'x, y, z'
  2  '-x, -y, -z'
  3  '-x, y, -z'
  4  'x, -y, z'
  5  'x+1/2, y+1/2, z'
  6  '-x+1/2, -y+1/2, -z'
  7  '-x+1/2, y+1/2, -z'
  8  'x+1/2, -y+1/2, z'
loop_
 _atom_site_type_symbol
 _atom_site_label
 _atom_site_symmetry_multiplicity
 _atom_site_fract_x
 _atom_site_fract_y
 _atom_site_fract_z
 _atom_site_occupancy
  Si  Si0  8  0.22537326  0.28801977  0.27053016  1
  Si  Si1  4  0.00000000  0.13429015  0.00000000  1
  Si  Si2  4  0.04157798  0.50000000  0.25254348  1
# generated using pymatgen
data_ID_9
_symmetry_space_group_name_H-M   I4_1/amd
_cell_length_a   4.80704695
_cell_length_b   4.80704695
_cell_length_c   2.64420622
_cell_angle_alpha   90.00000000
_cell_angle_beta   90.00000000
_cell_angle_gamma   90.00000000
_symmetry_Int_Tables_number   141
_chemical_formula_structural   Si
_cell_volume   61.10152508
_cell_formula_units_Z   4
loop_
 _symmetry_equiv_pos_site_id
 _symmetry_equiv_pos_as_xyz
  1  'x, y, z'
  2  '-y, x+1/2, z+1/4'
  3  '-x+1/2, -y+1/2, z+1/2'
  4  'y+1/2, -x, z+3/4'
  5  'x, -y+1/2, -z+1/4'
  6  '-y, -x, -z'
  7  '-x+1/2, y, -z+3/4'
  8  'y+1/2, x+1/2, -z+1/2'
  9  '-x, -y+1/2, -z+1/4'
  10  'y, -x, -z'
  11  'x+1/2, y, -z+3/4'
  12  '-y+1/2, x+1/2, -z+1/2'
  13  '-x, y, z'
  14  'y, x+1/2, z+1/4'
  15  'x+1/2, -y+1/2, z+1/2'
  16  '-y+1/2, -x, z+3/4'
  17  'x+1/2, y+1/2, z+1/2'
  18  '-y+1/2, x, z+3/4'
  19  '-x, -y, z'
  20  'y, -x+1/2, z+1/4'
  21  'x+1/2, -y, -z+3/4'
  22  '-y+1/2, -x+1/2, -z+1/2'
  23  '-x, y+1/2, -z+1/4'
  24  'y, x, -z'
  25  '-x+1/2, -y, -z+3/4'
  26  'y+1/2, -x+1/2, -z+1/2'
  27  'x, y+1/2, -z+1/4'
  28  '-y, x, -z'
  29  '-x+1/2, y+1/2, z+1/2'
  30  'y+1/2, x, z+3/4'
  31  'x, -y, z'
  32  '-y, -x+1/2, z+1/4'
loop_
 _atom_site_type_symbol
 _atom_site_label
 _atom_site_symmetry_multiplicity
 _atom_site_fract_x
 _atom_site_fract_y
 _atom_site_fract_z
 _atom_site_occupancy
  Si  Si0  4  0.00000000  0.00000000  0.50000000  1
# generated using pymatgen
data_ID_10
_symmetry_space_group_name_H-M   P4/mmm
_cell_length_a   5.73384732
_cell_length_b   5.73384732
_cell_length_c   7.42377778
_cell_angle_alpha   90.00000000
_cell_angle_beta   90.00000000
_cell_angle_gamma   90.00000000
_symmetry_Int_Tables_number   123
_chemical_formula_structural   Si
_cell_volume   244.07157960
_cell_formula_units_Z   8
loop_
 _symmetry_equiv_pos_site_id
 _symmetry_equiv_pos_as_xyz
  1  'x, y, z'
  2  '-x, -y, -z'
  3  '-y, x, z'
  4  'y, -x, -z'
  5  '-x, -y, z'
  6  'x, y, -z'
  7  'y, -x, z'
  8  '-y, x, -z'
  9  'x, -y, -z'
  10  '-x, y, z'
  11  '-y, -x, -z'
  12  'y, x, z'
  13  '-x, y, -z'
  14  'x, -y, z'
  15  'y, x, -z'
  16  '-y, -x, z'
loop_
 _atom_site_type_symbol
 _atom_site_label
 _atom_site_symmetry_multiplicity
 _atom_site_fract_x
 _atom_site_fract_y
 _atom_site_fract_z
 _atom_site_occupancy
  Si  Si0  8  0.00000000  0.29352671  0.16521429  1
# generated using pymatgen
data_ID_11
_symmetry_space_group_name_H-M   P6/mmm
_cell_length_a   2.65521343
_cell_length_b   2.65521343
_cell_length_c   2.47087714
_cell_angle_alpha   90.00000000
_cell_angle_beta   90.00000000
_cell_angle_gamma   120.00000000
_symmetry_Int_Tables_number   191
_chemical_formula_structural   Si
_cell_volume   15.08622765
_cell_formula_units_Z   1
loop_
 _symmetry_equiv_pos_site_id
 _symmetry_equiv_pos_as_xyz
  1  'x, y, z'
  2  '-x, -y, -z'
  3  'x-y, x, z'
  4  '-x+y, -x, -z'
  5  '-y, x-y, z'
  6  'y, -x+y, -z'
  7  '-x, -y, z'
  8  'x, y, -z'
  9  '-x+y, -x, z'
  10  'x-y, x, -z'
  11  'y, -x+y, z'
  12  '-y, x-y, -z'
  13  '-y, -x, -z'
  14  'y, x, z'
  15  '-x, -x+y, -z'
  16  'x, x-y, z'
  17  '-x+y, y, -z'
  18  'x-y, -y, z'
  19  'y, x, -z'
  20  '-y, -x, z'
  21  'x, x-y, -z'
  22  '-x, -x+y, z'
  23  'x-y, -y, -z'
  24  '-x+y, y, z'
loop_
 _atom_site_type_symbol
 _atom_site_label
 _atom_site_symmetry_multiplicity
 _atom_site_fract_x
 _atom_site_fract_y
 _atom_site_fract_z
 _atom_site_occupancy
  Si  Si0  1  0.00000000  0.00000000  0.00000000  1
# generated using pymatgen
data_ID_12
_symmetry_space_group_name_H-M   P4_2/mcm
_cell_length_a   4.81218745
_cell_length_b   4.81218745
_cell_length_c   6.66935946
_cell_angle_alpha   90.00000000
_cell_angle_beta   90.00000000
_cell_angle_gamma   90.00000000
_symmetry_Int_Tables_number   132
_chemical_formula_structural   Si
_cell_volume   154.44334466
_cell_formula_units_Z   8
loop_
 _symmetry_equiv_pos_site_id
 _symmetry_equiv_pos_as_xyz
  1  'x, y, z'
  2  '-x, -y, -z'
  3  '-y, x, z+1/2'
  4  'y, -x, -z+1/2'
  5  '-x, -y, z'
  6  'x, y, -z'
  7  'y, -x, z+1/2'
  8  '-y, x, -z+1/2'
  9  'x, -y, -z+1/2'
  10  '-x, y, z+1/2'
  11  '-y, -x, -z'
  12  'y, x, z'
  13  '-x, y, -z+1/2'
  14  'x, -y, z+1/2'
  15  'y, x, -z'
  16  '-y, -x, z'
loop_
 _atom_site_type_symbol
 _atom_site_label
 _atom_site_symmetry_multiplicity
 _atom_site_fract_x
 _atom_site_fract_y
 _atom_site_fract_z
 _atom_site_occupancy
  Si  Si0  4  0.00000000  0.50000000  0.25000000  1
  Si  Si1  4  0.31944312  0.31944312  0.00000000  1
# generated using pymatgen
data_ID_13
_symmetry_space_group_name_H-M   P4/nmm
_cell_length_a   3.62404255
_cell_length_b   3.62404255
_cell_length_c   4.71691019
_cell_angle_alpha   90.00000000
_cell_angle_beta   90.00000000
_cell_angle_gamma   90.00000000
_symmetry_Int_Tables_number   129
_chemical_formula_structural   Si
_cell_volume   61.95040968
_cell_formula_units_Z   4
loop_
 _symmetry_equiv_pos_site_id
 _symmetry_equiv_pos_as_xyz
  1  'x, y, z'
  2  '-y+1/2, x+1/2, z'
  3  '-x, -y, z'
  4  'y+1/2, -x+1/2, z'
  5  'x+1/2, -y+1/2, -z'
  6  '-y, -x, -z'
  7  '-x+1/2, y+1/2, -z'
  8  'y, x, -z'
  9  '-x+1/2, -y+1/2, -z'
  10  'y, -x, -z'
  11  'x+1/2, y+1/2, -z'
  12  '-y, x, -z'
  13  '-x, y, z'
  14  'y+1/2, x+1/2, z'
  15  'x, -y, z'
  16  '-y+1/2, -x+1/2, z'
loop_
 _atom_site_type_symbol
 _atom_site_label
 _atom_site_symmetry_multiplicity
 _atom_site_fract_x
 _atom_site_fract_y
 _atom_site_fract_z
 _atom_site_occupancy
  Si  Si0  2  0.00000000  0.00000000  0.50000000  1
  Si  Si1  2  0.00000000  0.50000000  0.88931805  1
# generated using pymatgen
data_ID_14
_symmetry_space_group_name_H-M   Pm-3m
_cell_length_a   2.53754836
_cell_length_b   2.53754836
_cell_length_c   2.53754836
_cell_angle_alpha   90.00000000
_cell_angle_beta   90.00000000
_cell_angle_gamma   90.00000000
_symmetry_Int_Tables_number   221
_chemical_formula_structural   Si
_cell_volume   16.33965876
_cell_formula_units_Z   1
loop_
 _symmetry_equiv_pos_site_id
 _symmetry_equiv_pos_as_xyz
  1  'x, y, z'
  2  '-x, -y, -z'
  3  '-y, x, z'
  4  'y, -x, -z'
  5  '-x, -y, z'
  6  'x, y, -z'
  7  'y, -x, z'
  8  '-y, x, -z'
  9  'x, -y, -z'
  10  '-x, y, z'
  11  '-y, -x, -z'
  12  'y, x, z'
  13  '-x, y, -z'
  14  'x, -y, z'
  15  'y, x, -z'
  16  '-y, -x, z'
  17  'z, x, y'
  18  '-z, -x, -y'
  19  'z, -y, x'
  20  '-z, y, -x'
  21  'z, -x, -y'
  22  '-z, x, y'
  23  'z, y, -x'
  24  '-z, -y, x'
  25  '-z, x, -y'
  26  'z, -x, y'
  27  '-z, -y, -x'
  28  'z, y, x'
  29  '-z, -x, y'
  30  'z, x, -y'
  31  '-z, y, x'
  32  'z, -y, -x'
  33  'y, z, x'
  34  '-y, -z, -x'
  35  'x, z, -y'
  36  '-x, -z, y'
  37  '-y, z, -x'
  38  'y, -z, x'
  39  '-x, z, y'
  40  'x, -z, -y'
  41  '-y, -z, x'
  42  'y, z, -x'
  43  '-x, -z, -y'
  44  'x, z, y'
  45  'y, -z, -x'
  46  '-y, z, x'
  47  'x, -z, y'
  48  '-x, z, -y'
loop_
 _atom_site_type_symbol
 _atom_site_label
 _atom_site_symmetry_multiplicity
 _atom_site_fract_x
 _atom_site_fract_y
 _atom_site_fract_z
 _atom_site_occupancy
  Si  Si0  1  0.00000000  0.00000000  0.00000000  1
# generated using pymatgen
data_ID_15
_symmetry_space_group_name_H-M   P6_3/mmc
_cell_length_a   3.64321064
_cell_length_b   3.64321064
_cell_length_c   5.68871748
_cell_angle_alpha   90.00000000
_cell_angle_beta   90.00000000
_cell_angle_gamma   120.00000000
_symmetry_Int_Tables_number   194
_chemical_formula_structural   Si
_cell_volume   65.39033485
_cell_formula_units_Z   4
loop_
 _symmetry_equiv_pos_site_id
 _symmetry_equiv_pos_as_xyz
  1  'x, y, z'
  2  '-x, -y, -z'
  3  'x-y, x, z+1/2'
  4  '-x+y, -x, -z+1/2'
  5  '-y, x-y, z'
  6  'y, -x+y, -z'
  7  '-x, -y, z+1/2'
  8  'x, y, -z+1/2'
  9  '-x+y, -x, z'
  10  'x-y, x, -z'
  11  'y, -x+y, z+1/2'
  12  '-y, x-y, -z+1/2'
  13  '-y, -x, -z+1/2'
  14  'y, x, z+1/2'
  15  '-x, -x+y, -z'
  16  'x, x-y, z'
  17  '-x+y, y, -z+1/2'
  18  'x-y, -y, z+1/2'
  19  'y, x, -z'
  20  '-y, -x, z'
  21  'x, x-y, -z+1/2'
  22  '-x, -x+y, z+1/2'
  23  'x-y, -y, -z'
  24  '-x+y, y, z'
loop_
 _atom_site_type_symbol
 _atom_site_label
 _atom_site_symmetry_multiplicity
 _atom_site_fract_x
 _atom_site_fract_y
 _atom_site_fract_z
 _atom_site_occupancy
  Si  Si0  2  0.00000000  0.00000000  0.00000000  1
  Si  Si1  2  0.33333333  0.66666667  0.25000000  1
# generated using pymatgen
data_ID_16
_symmetry_space_group_name_H-M   P2
_cell_length_a   3.67833815
_cell_length_b   7.68325795
_cell_length_c   5.22126172
_cell_angle_alpha   90.00000000
_cell_angle_beta   107.00432757
_cell_angle_gamma   90.00000000
_symmetry_Int_Tables_number   3
_chemical_formula_structural   Si
_cell_volume   141.11033220
_cell_formula_units_Z   8
loop_
 _symmetry_equiv_pos_site_id
 _symmetry_equiv_pos_as_xyz
  1  'x, y, z'
  2  '-x, y, -z'
loop_
 _atom_site_type_symbol
 _atom_site_label
 _atom_site_symmetry_multiplicity
 _atom_site_fract_x
 _atom_site_fract_y
 _atom_site_fract_z
 _atom_site_occupancy
  Si  Si0  2  0.00063102  0.47686378  0.74940114  1
  Si  Si1  2  0.49889006  0.68817501  0.24936317  1
  Si  Si2  1  0.00000000  0.20240632  0.50000000  1
  Si  Si3  1  0.00000000  0.20367563  0.00000000  1
  Si  Si4  1  0.00000000  0.88983500  0.50000000  1
  Si  Si5  1  0.00000000  0.89131421  0.00000000  1
# generated using pymatgen
data_ID_17
_symmetry_space_group_name_H-M   P6mm
_cell_length_a   9.71683414
_cell_length_b   9.71683414
_cell_length_c   2.19961245
_cell_angle_alpha   90.00000000
_cell_angle_beta   90.00000000
_cell_angle_gamma   120.00000000
_symmetry_Int_Tables_number   183
_chemical_formula_structural   Si
_cell_volume   179.85660068
_cell_formula_units_Z   4
loop_
 _symmetry_equiv_pos_site_id
 _symmetry_equiv_pos_as_xyz
  1  'x, y, z'
  2  'x-y, x, z'
  3  '-y, x-y, z'
  4  '-x, -y, z'
  5  '-x+y, -x, z'
  6  'y, -x+y, z'
  7  'y, x, z'
  8  'x, x-y, z'
  9  'x-y, -y, z'
  10  '-y, -x, z'
  11  '-x, -x+y, z'
  12  '-x+y, y, z'
loop_
 _atom_site_type_symbol
 _atom_site_label
 _atom_site_symmetry_multiplicity
 _atom_site_fract_x
 _atom_site_fract_y
 _atom_site_fract_z
 _atom_site_occupancy
  Si  Si0  3  0.00000000  0.50000000  0.18821986  1
  Si  Si1  1  0.00000000  0.00000000  0.05250242  1
# generated using pymatgen
data_ID_18
_symmetry_space_group_name_H-M   P6/mmm
_cell_length_a   2.65570504
_cell_length_b   2.65570504
_cell_length_c   2.47059669
_cell_angle_alpha   90.00000000
_cell_angle_beta   90.00000000
_cell_angle_gamma   120.00000000
_symmetry_Int_Tables_number   191
_chemical_formula_structural   Si
_cell_volume   15.09010161
_cell_formula_units_Z   1
loop_
 _symmetry_equiv_pos_site_id
 _symmetry_equiv_pos_as_xyz
  1  'x, y, z'
  2  '-x, -y, -z'
  3  'x-y, x, z'
  4  '-x+y, -x, -z'
  5  '-y, x-y, z'
  6  'y, -x+y, -z'
  7  '-x, -y, z'
  8  'x, y, -z'
  9  '-x+y, -x, z'
  10  'x-y, x, -z'
  11  'y, -x+y, z'
  12  '-y, x-y, -z'
  13  '-y, -x, -z'
  14  'y, x, z'
  15  '-x, -x+y, -z'
  16  'x, x-y, z'
  17  '-x+y, y, -z'
  18  'x-y, -y, z'
  19  'y, x, -z'
  20  '-y, -x, z'
  21  'x, x-y, -z'
  22  '-x, -x+y, z'
  23  'x-y, -y, -z'
  24  '-x+y, y, z'
loop_
 _atom_site_type_symbol
 _atom_site_label
 _atom_site_symmetry_multiplicity
 _atom_site_fract_x
 _atom_site_fract_y
 _atom_site_fract_z
 _atom_site_occupancy
  Si  Si0  1  0.00000000  0.00000000  0.50000000  1
# generated using pymatgen
data_ID_19
_symmetry_space_group_name_H-M   P4_2/mnm
_cell_length_a   6.01432669
_cell_length_b   6.01432669
_cell_length_c   4.85398394
_cell_angle_alpha   90.00000000
_cell_angle_beta   90.00000000
_cell_angle_gamma   90.00000000
_symmetry_Int_Tables_number   136
_chemical_formula_structural   Si
_cell_volume   175.57891657
_cell_formula_units_Z   8
loop_
 _symmetry_equiv_pos_site_id
 _symmetry_equiv_pos_as_xyz
  1  'x, y, z'
  2  '-x, -y, -z'
  3  '-y+1/2, x+1/2, z+1/2'
  4  'y+1/2, -x+1/2, -z+1/2'
  5  '-x, -y, z'
  6  'x, y, -z'
  7  'y+1/2, -x+1/2, z+1/2'
  8  '-y+1/2, x+1/2, -z+1/2'
  9  'x+1/2, -y+1/2, -z+1/2'
  10  '-x+1/2, y+1/2, z+1/2'
  11  '-y, -x, -z'
  12  'y, x, z'
  13  '-x+1/2, y+1/2, -z+1/2'
  14  'x+1/2, -y+1/2, z+1/2'
  15  'y, x, -z'
  16  '-y, -x, z'
loop_
 _atom_site_type_symbol
 _atom_site_label
 _atom_site_symmetry_multiplicity
 _atom_site_fract_x
 _atom_site_fract_y
 _atom_site_fract_z
 _atom_site_occupancy
  Si  Si0  4  0.00000000  0.50000000  0.00000000  1
  Si  Si1  4  0.13677345  0.13677345  0.50000000  1
