# generated using pymatgen
data_ID_0
_symmetry_space_group_name_H-M   P4_1
_cell_length_a   7.54973932
_cell_length_b   7.54973932
_cell_length_c   2.77210488
_cell_angle_alpha   90.00000000
_cell_angle_beta   90.00000000
_cell_angle_gamma   90.00000000
_symmetry_Int_Tables_number   76
_chemical_formula_structural   Au
_cell_volume   158.00599670
_cell_formula_units_Z   8
loop_
 _symmetry_equiv_pos_site_id
 _symmetry_equiv_pos_as_xyz
  1  'x, y, z'
  2  '-y, x, z+1/4'
  3  '-x, -y, z+1/2'
  4  'y, -x, z+3/4'
loop_
 _atom_site_type_symbol
 _atom_site_label
 _atom_site_symmetry_multiplicity
 _atom_site_fract_x
 _atom_site_fract_y
 _atom_site_fract_z
 _atom_site_occupancy
  Au  Au0  4  0.05382707  0.34335539  0.60302418  1
  Au  Au1  4  0.28501210  0.62348484  0.79372575  1
# generated using pymatgen
data_ID_1
_symmetry_space_group_name_H-M   P4_2/mmc
_cell_length_a   2.75701471
_cell_length_b   2.75701471
_cell_length_c   9.72259523
_cell_angle_alpha   90.00000000
_cell_angle_beta   90.00000000
_cell_angle_gamma   90.00000000
_symmetry_Int_Tables_number   131
_chemical_formula_structural   Au
_cell_volume   73.90271157
_cell_formula_units_Z   4
loop_
 _symmetry_equiv_pos_site_id
 _symmetry_equiv_pos_as_xyz
  1  'x, y, z'
  2  '-x, -y, -z'
  3  '-y, x, z+1/2'
  4  'y, -x, -z+1/2'
  5  '-x, -y, z'
  6  'x, y, -z'
  7  'y, -x, z+1/2'
  8  '-y, x, -z+1/2'
  9  'x, -y, -z'
  10  '-x, y, z'
  11  '-y, -x, -z+1/2'
  12  'y, x, z+1/2'
  13  '-x, y, -z'
  14  'x, -y, z'
  15  'y, x, -z+1/2'
  16  '-y, -x, z+1/2'
loop_
 _atom_site_type_symbol
 _atom_site_label
 _atom_site_symmetry_multiplicity
 _atom_site_fract_x
 _atom_site_fract_y
 _atom_site_fract_z
 _atom_site_occupancy
  Au  Au0  2  0.00000000  0.50000000  0.50000000  1
  Au  Au1  2  0.50000000  0.50000000  0.25000000  1
# generated using pymatgen
data_ID_2
_symmetry_space_group_name_H-M   Cmcm
_cell_length_a   7.63349088
_cell_length_b   7.05826324
_cell_length_c   5.18261527
_cell_angle_alpha   90.00000000
_cell_angle_beta   90.00000000
_cell_angle_gamma   90.00000000
_symmetry_Int_Tables_number   63
_chemical_formula_structural   Au
_cell_volume   279.23510325
_cell_formula_units_Z   16
loop_
 _symmetry_equiv_pos_site_id
 _symmetry_equiv_pos_as_xyz
  1  'x, y, z'
  2  '-x, -y, -z'
  3  '-x, -y, z+1/2'
  4  'x, y, -z+1/2'
  5  'x, -y, -z'
  6  '-x, y, z'
  7  '-x, y, -z+1/2'
  8  'x, -y, z+1/2'
  9  'x+1/2, y+1/2, z'
  10  '-x+1/2, -y+1/2, -z'
  11  '-x+1/2, -y+1/2, z+1/2'
  12  'x+1/2, y+1/2, -z+1/2'
  13  'x+1/2, -y+1/2, -z'
  14  '-x+1/2, y+1/2, z'
  15  '-x+1/2, y+1/2, -z+1/2'
  16  'x+1/2, -y+1/2, z+1/2'
loop_
 _atom_site_type_symbol
 _atom_site_label
 _atom_site_symmetry_multiplicity
 _atom_site_fract_x
 _atom_site_fract_y
 _atom_site_fract_z
 _atom_site_occupancy
  Au  Au0  8  0.18570063  0.18885185  0.25000000  1
  Au  Au1  4  0.00000000  0.13739258  0.75000000  1
  Au  Au2  4  0.00000000  0.50000000  0.00000000  1
# generated using pymatgen
data_ID_3
_symmetry_space_group_name_H-M   P6mm
_cell_length_a   5.29602874
_cell_length_b   5.29602874
_cell_length_c   7.25112919
_cell_angle_alpha   90.00000000
_cell_angle_beta   90.00000000
_cell_angle_gamma   120.00000000
_symmetry_Int_Tables_number   183
_chemical_formula_structural   Au
_cell_volume   176.13146233
_cell_formula_units_Z   8
loop_
 _symmetry_equiv_pos_site_id
 _symmetry_equiv_pos_as_xyz
  1  'x, y, z'
  2  'x-y, x, z'
  3  '-y, x-y, z'
  4  '-x, -y, z'
  5  '-x+y, -x, z'
  6  'y, -x+y, z'
  7  'y, x, z'
  8  'x, x-y, z'
  9  'x-y, -y, z'
  10  '-y, -x, z'
  11  '-x, -x+y, z'
  12  '-x+y, y, z'
loop_
 _atom_site_type_symbol
 _atom_site_label
 _atom_site_symmetry_multiplicity
 _atom_site_fract_x
 _atom_site_fract_y
 _atom_site_fract_z
 _atom_site_occupancy
  Au  Au0  3  0.00000000  0.50000000  0.96954739  1
  Au  Au1  2  0.33333333  0.66666667  0.29138539  1
  Au  Au2  2  0.33333333  0.66666667  0.64966341  1
  Au  Au3  1  0.00000000  0.00000000  0.79690508  1
# generated using pymatgen
data_ID_4
_symmetry_space_group_name_H-M   Pm-3m
_cell_length_a   2.70797827
_cell_length_b   2.70797827
_cell_length_c   2.70797827
_cell_angle_alpha   90.00000000
_cell_angle_beta   90.00000000
_cell_angle_gamma   90.00000000
_symmetry_Int_Tables_number   221
_chemical_formula_structural   Au
_cell_volume   19.85800080
_cell_formula_units_Z   1
loop_
 _symmetry_equiv_pos_site_id
 _symmetry_equiv_pos_as_xyz
  1  'x, y, z'
  2  '-x, -y, -z'
  3  '-y, x, z'
  4  'y, -x, -z'
  5  '-x, -y, z'
  6  'x, y, -z'
  7  'y, -x, z'
  8  '-y, x, -z'
  9  'x, -y, -z'
  10  '-x, y, z'
  11  '-y, -x, -z'
  12  'y, x, z'
  13  '-x, y, -z'
  14  'x, -y, z'
  15  'y, x, -z'
  16  '-y, -x, z'
  17  'z, x, y'
  18  '-z, -x, -y'
  19  'z, -y, x'
  20  '-z, y, -x'
  21  'z, -x, -y'
  22  '-z, x, y'
  23  'z, y, -x'
  24  '-z, -y, x'
  25  '-z, x, -y'
  26  'z, -x, y'
  27  '-z, -y, -x'
  28  'z, y, x'
  29  '-z, -x, y'
  30  'z, x, -y'
  31  '-z, y, x'
  32  'z, -y, -x'
  33  'y, z, x'
  34  '-y, -z, -x'
  35  'x, z, -y'
  36  '-x, -z, y'
  37  '-y, z, -x'
  38  'y, -z, x'
  39  '-x, z, y'
  40  'x, -z, -y'
  41  '-y, -z, x'
  42  'y, z, -x'
  43  '-x, -z, -y'
  44  'x, z, y'
  45  'y, -z, -x'
  46  '-y, z, x'
  47  'x, -z, y'
  48  '-x, z, -y'
loop_
 _atom_site_type_symbol
 _atom_site_label
 _atom_site_symmetry_multiplicity
 _atom_site_fract_x
 _atom_site_fract_y
 _atom_site_fract_z
 _atom_site_occupancy
  Au  Au0  1  0.00000000  0.00000000  0.00000000  1
