# generated using pymatgen
data_ID_0
_symmetry_space_group_name_H-M   Pm-3m
_cell_length_a   2.70767775
_cell_length_b   2.70767775
_cell_length_c   2.70767775
_cell_angle_alpha   90.00000000
_cell_angle_beta   90.00000000
_cell_angle_gamma   90.00000000
_symmetry_Int_Tables_number   221
_chemical_formula_structural   Au
_cell_volume   19.85139037
_cell_formula_units_Z   1
loop_
 _symmetry_equiv_pos_site_id
 _symmetry_equiv_pos_as_xyz
  1  'x, y, z'
  2  '-x, -y, -z'
  3  '-y, x, z'
  4  'y, -x, -z'
  5  '-x, -y, z'
  6  'x, y, -z'
  7  'y, -x, z'
  8  '-y, x, -z'
  9  'x, -y, -z'
  10  '-x, y, z'
  11  '-y, -x, -z'
  12  'y, x, z'
  13  '-x, y, -z'
  14  'x, -y, z'
  15  'y, x, -z'
  16  '-y, -x, z'
  17  'z, x, y'
  18  '-z, -x, -y'
  19  'z, -y, x'
  20  '-z, y, -x'
  21  'z, -x, -y'
  22  '-z, x, y'
  23  'z, y, -x'
  24  '-z, -y, x'
  25  '-z, x, -y'
  26  'z, -x, y'
  27  '-z, -y, -x'
  28  'z, y, x'
  29  '-z, -x, y'
  30  'z, x, -y'
  31  '-z, y, x'
  32  'z, -y, -x'
  33  'y, z, x'
  34  '-y, -z, -x'
  35  'x, z, -y'
  36  '-x, -z, y'
  37  '-y, z, -x'
  38  'y, -z, x'
  39  '-x, z, y'
  40  'x, -z, -y'
  41  '-y, -z, x'
  42  'y, z, -x'
  43  '-x, -z, -y'
  44  'x, z, y'
  45  'y, -z, -x'
  46  '-y, z, x'
  47  'x, -z, y'
  48  '-x, z, -y'
loop_
 _atom_site_type_symbol
 _atom_site_label
 _atom_site_symmetry_multiplicity
 _atom_site_fract_x
 _atom_site_fract_y
 _atom_site_fract_z
 _atom_site_occupancy
  Au  Au0  1  0.50000000  0.50000000  0.50000000  1
# generated using pymatgen
data_ID_1
_symmetry_space_group_name_H-M   I-43d
_cell_length_a   6.45820460
_cell_length_b   6.45820460
_cell_length_c   6.45820460
_cell_angle_alpha   90.00000000
_cell_angle_beta   90.00000000
_cell_angle_gamma   90.00000000
_symmetry_Int_Tables_number   220
_chemical_formula_structural   Au
_cell_volume   269.36142388
_cell_formula_units_Z   16
loop_
 _symmetry_equiv_pos_site_id
 _symmetry_equiv_pos_as_xyz
  1  'x, y, z'
  2  'y+1/4, -x+3/4, -z+1/4'
  3  '-x, -y+1/2, z'
  4  '-y+3/4, x+3/4, -z+1/4'
  5  'x, -y, -z+1/2'
  6  'y+1/4, x+1/4, z+1/4'
  7  '-x, y+1/2, -z+1/2'
  8  '-y+3/4, -x+1/4, z+1/4'
  9  'z, x, y'
  10  '-z+1/4, y+1/4, -x+3/4'
  11  'z, -x, -y+1/2'
  12  '-z+1/4, -y+3/4, x+3/4'
  13  '-z+1/2, x, -y'
  14  'z+1/4, y+1/4, x+1/4'
  15  '-z+1/2, -x, y+1/2'
  16  'z+1/4, -y+3/4, -x+1/4'
  17  'y, z, x'
  18  '-x+3/4, -z+1/4, y+1/4'
  19  '-y+1/2, z, -x'
  20  'x+3/4, -z+1/4, -y+3/4'
  21  '-y, -z+1/2, x'
  22  'x+1/4, z+1/4, y+1/4'
  23  'y+1/2, -z+1/2, -x'
  24  '-x+1/4, z+1/4, -y+3/4'
  25  'x+1/2, y+1/2, z+1/2'
  26  'y+3/4, -x+1/4, -z+3/4'
  27  '-x+1/2, -y, z+1/2'
  28  '-y+1/4, x+1/4, -z+3/4'
  29  'x+1/2, -y+1/2, -z'
  30  'y+3/4, x+3/4, z+3/4'
  31  '-x+1/2, y, -z'
  32  '-y+1/4, -x+3/4, z+3/4'
  33  'z+1/2, x+1/2, y+1/2'
  34  '-z+3/4, y+3/4, -x+1/4'
  35  'z+1/2, -x+1/2, -y'
  36  '-z+3/4, -y+1/4, x+1/4'
  37  '-z, x+1/2, -y+1/2'
  38  'z+3/4, y+3/4, x+3/4'
  39  '-z, -x+1/2, y'
  40  'z+3/4, -y+1/4, -x+3/4'
  41  'y+1/2, z+1/2, x+1/2'
  42  '-x+1/4, -z+3/4, y+3/4'
  43  '-y, z+1/2, -x+1/2'
  44  'x+1/4, -z+3/4, -y+1/4'
  45  '-y+1/2, -z, x+1/2'
  46  'x+3/4, z+3/4, y+3/4'
  47  'y, -z, -x+1/2'
  48  '-x+3/4, z+3/4, -y+1/4'
loop_
 _atom_site_type_symbol
 _atom_site_label
 _atom_site_symmetry_multiplicity
 _atom_site_fract_x
 _atom_site_fract_y
 _atom_site_fract_z
 _atom_site_occupancy
  Au  Au0  16  0.02193596  0.47806404  0.52193596  1
# generated using pymatgen
data_ID_2
_symmetry_space_group_name_H-M   P6/m
_cell_length_a   7.11219847
_cell_length_b   7.11219847
_cell_length_c   5.24695050
_cell_angle_alpha   90.00000000
_cell_angle_beta   90.00000000
_cell_angle_gamma   120.00000000
_symmetry_Int_Tables_number   175
_chemical_formula_structural   Au
_cell_volume   229.85043718
_cell_formula_units_Z   8
loop_
 _symmetry_equiv_pos_site_id
 _symmetry_equiv_pos_as_xyz
  1  'x, y, z'
  2  '-x, -y, -z'
  3  'x-y, x, z'
  4  '-x+y, -x, -z'
  5  '-y, x-y, z'
  6  'y, -x+y, -z'
  7  '-x, -y, z'
  8  'x, y, -z'
  9  '-x+y, -x, z'
  10  'x-y, x, -z'
  11  'y, -x+y, z'
  12  '-y, x-y, -z'
loop_
 _atom_site_type_symbol
 _atom_site_label
 _atom_site_symmetry_multiplicity
 _atom_site_fract_x
 _atom_site_fract_y
 _atom_site_fract_z
 _atom_site_occupancy
  Au  Au0  6  0.14139823  0.72164544  0.50000000  1
  Au  Au1  2  0.00000000  0.00000000  0.25616673  1
# generated using pymatgen
data_ID_3
_symmetry_space_group_name_H-M   P4_322
_cell_length_a   4.90585961
_cell_length_b   4.90585961
_cell_length_c   6.82649960
_cell_angle_alpha   90.00000000
_cell_angle_beta   90.00000000
_cell_angle_gamma   90.00000000
_symmetry_Int_Tables_number   95
_chemical_formula_structural   Au
_cell_volume   164.29649556
_cell_formula_units_Z   8
loop_
 _symmetry_equiv_pos_site_id
 _symmetry_equiv_pos_as_xyz
  1  'x, y, z'
  2  '-y, x, z+3/4'
  3  '-x, -y, z+1/2'
  4  'y, -x, z+1/4'
  5  'x, -y, -z+1/2'
  6  '-y, -x, -z+3/4'
  7  '-x, y, -z'
  8  'y, x, -z+1/4'
loop_
 _atom_site_type_symbol
 _atom_site_label
 _atom_site_symmetry_multiplicity
 _atom_site_fract_x
 _atom_site_fract_y
 _atom_site_fract_z
 _atom_site_occupancy
  Au  Au0  4  0.20271629  0.50000000  0.75000000  1
  Au  Au1  4  0.27553086  0.27553086  0.12500000  1
# generated using pymatgen
data_ID_4
_symmetry_space_group_name_H-M   C222
_cell_length_a   6.71171034
_cell_length_b   8.66198882
_cell_length_c   6.56833251
_cell_angle_alpha   90.00000000
_cell_angle_beta   90.00000000
_cell_angle_gamma   90.00000000
_symmetry_Int_Tables_number   21
_chemical_formula_structural   Au
_cell_volume   381.86156998
_cell_formula_units_Z   16
loop_
 _symmetry_equiv_pos_site_id
 _symmetry_equiv_pos_as_xyz
  1  'x, y, z'
  2  '-x, -y, z'
  3  'x, -y, -z'
  4  '-x, y, -z'
  5  'x+1/2, y+1/2, z'
  6  '-x+1/2, -y+1/2, z'
  7  'x+1/2, -y+1/2, -z'
  8  '-x+1/2, y+1/2, -z'
loop_
 _atom_site_type_symbol
 _atom_site_label
 _atom_site_symmetry_multiplicity
 _atom_site_fract_x
 _atom_site_fract_y
 _atom_site_fract_z
 _atom_site_occupancy
  Au  Au0  4  0.00000000  0.00000000  0.20208501  1
  Au  Au1  4  0.00000000  0.22749400  0.50000000  1
  Au  Au2  4  0.20861463  0.50000000  0.50000000  1
  Au  Au3  4  0.25000000  0.25000000  0.18134419  1
