# generated using pymatgen
data_ID_0
_symmetry_space_group_name_H-M   Fdd2
_cell_length_a   6.44401698
_cell_length_b   11.55785131
_cell_length_c   13.63680559
_cell_angle_alpha   90.00000000
_cell_angle_beta   90.00000000
_cell_angle_gamma   90.00000000
_symmetry_Int_Tables_number   43
_chemical_formula_structural   CuAu
_cell_volume   1015.65550845
_cell_formula_units_Z   32
loop_
 _symmetry_equiv_pos_site_id
 _symmetry_equiv_pos_as_xyz
  1  'x, y, z'
  2  '-x, -y, z'
  3  '-x+1/4, y+3/4, z+3/4'
  4  'x+1/4, -y+3/4, z+3/4'
  5  'x+1/2, y, z+1/2'
  6  '-x+1/2, -y, z+1/2'
  7  '-x+3/4, y+3/4, z+1/4'
  8  'x+3/4, -y+3/4, z+1/4'
  9  'x+1/2, y+1/2, z'
  10  '-x+1/2, -y+1/2, z'
  11  '-x+3/4, y+1/4, z+3/4'
  12  'x+3/4, -y+1/4, z+3/4'
  13  'x, y+1/2, z+1/2'
  14  '-x, -y+1/2, z+1/2'
  15  '-x+1/4, y+1/4, z+1/4'
  16  'x+1/4, -y+1/4, z+1/4'
loop_
 _atom_site_type_symbol
 _atom_site_label
 _atom_site_symmetry_multiplicity
 _atom_site_fract_x
 _atom_site_fract_y
 _atom_site_fract_z
 _atom_site_occupancy
  Cu  Cu0  16  0.03788996  0.23048589  0.98275180  1
  Cu  Cu1  16  0.04292955  0.12073004  0.61187417  1
  Au  Au2  16  0.04601750  0.29341622  0.29269949  1
  Au  Au3  16  0.07632826  0.35178326  0.65867610  1
# generated using pymatgen
data_ID_1
_symmetry_space_group_name_H-M   Cmmm
_cell_length_a   5.69635737
_cell_length_b   6.96456889
_cell_length_c   2.81154277
_cell_angle_alpha   90.00000000
_cell_angle_beta   90.00000000
_cell_angle_gamma   90.00000000
_symmetry_Int_Tables_number   65
_chemical_formula_structural   CuAu
_cell_volume   111.54141799
_cell_formula_units_Z   4
loop_
 _symmetry_equiv_pos_site_id
 _symmetry_equiv_pos_as_xyz
  1  'x, y, z'
  2  '-x, -y, -z'
  3  '-x, -y, z'
  4  'x, y, -z'
  5  'x, -y, -z'
  6  '-x, y, z'
  7  '-x, y, -z'
  8  'x, -y, z'
  9  'x+1/2, y+1/2, z'
  10  '-x+1/2, -y+1/2, -z'
  11  '-x+1/2, -y+1/2, z'
  12  'x+1/2, y+1/2, -z'
  13  'x+1/2, -y+1/2, -z'
  14  '-x+1/2, y+1/2, z'
  15  '-x+1/2, y+1/2, -z'
  16  'x+1/2, -y+1/2, z'
loop_
 _atom_site_type_symbol
 _atom_site_label
 _atom_site_symmetry_multiplicity
 _atom_site_fract_x
 _atom_site_fract_y
 _atom_site_fract_z
 _atom_site_occupancy
  Cu  Cu0  4  0.23029483  0.00000000  0.50000000  1
  Au  Au1  4  0.00000000  0.26524350  0.00000000  1
# generated using pymatgen
data_ID_2
_symmetry_space_group_name_H-M   P4/mmm
_cell_length_a   6.86035645
_cell_length_b   6.86035645
_cell_length_c   2.68977436
_cell_angle_alpha   90.00000000
_cell_angle_beta   90.00000000
_cell_angle_gamma   90.00000000
_symmetry_Int_Tables_number   123
_chemical_formula_structural   CuAu
_cell_volume   126.59286044
_cell_formula_units_Z   4
loop_
 _symmetry_equiv_pos_site_id
 _symmetry_equiv_pos_as_xyz
  1  'x, y, z'
  2  '-x, -y, -z'
  3  '-y, x, z'
  4  'y, -x, -z'
  5  '-x, -y, z'
  6  'x, y, -z'
  7  'y, -x, z'
  8  '-y, x, -z'
  9  'x, -y, -z'
  10  '-x, y, z'
  11  '-y, -x, -z'
  12  'y, x, z'
  13  '-x, y, -z'
  14  'x, -y, z'
  15  'y, x, -z'
  16  '-y, -x, z'
loop_
 _atom_site_type_symbol
 _atom_site_label
 _atom_site_symmetry_multiplicity
 _atom_site_fract_x
 _atom_site_fract_y
 _atom_site_fract_z
 _atom_site_occupancy
  Cu  Cu0  4  0.24744321  0.50000000  0.50000000  1
  Au  Au1  4  0.00000000  0.28265036  0.00000000  1
