# generated using pymatgen
data_ID_0
_symmetry_space_group_name_H-M   Cmmm
_cell_length_a   8.77053393
_cell_length_b   11.77410217
_cell_length_c   3.04919922
_cell_angle_alpha   90.00000000
_cell_angle_beta   90.00000000
_cell_angle_gamma   90.00000000
_symmetry_Int_Tables_number   65
_chemical_formula_structural   Si
_cell_volume   314.87605262
_cell_formula_units_Z   16
loop_
 _symmetry_equiv_pos_site_id
 _symmetry_equiv_pos_as_xyz
  1  'x, y, z'
  2  '-x, -y, -z'
  3  '-x, -y, z'
  4  'x, y, -z'
  5  'x, -y, -z'
  6  '-x, y, z'
  7  '-x, y, -z'
  8  'x, -y, z'
  9  'x+1/2, y+1/2, z'
  10  '-x+1/2, -y+1/2, -z'
  11  '-x+1/2, -y+1/2, z'
  12  'x+1/2, y+1/2, -z'
  13  'x+1/2, -y+1/2, -z'
  14  '-x+1/2, y+1/2, z'
  15  '-x+1/2, y+1/2, -z'
  16  'x+1/2, -y+1/2, z'
loop_
 _atom_site_type_symbol
 _atom_site_label
 _atom_site_symmetry_multiplicity
 _atom_site_fract_x
 _atom_site_fract_y
 _atom_site_fract_z
 _atom_site_occupancy
  Si  Si0  8  0.20267022  0.34349136  0.50000000  1
  Si  Si1  4  0.00000000  0.39868262  0.00000000  1
  Si  Si2  4  0.13393535  0.00000000  0.50000000  1
# generated using pymatgen
data_ID_1
_symmetry_space_group_name_H-M   P2/m
_cell_length_a   2.49402349
_cell_length_b   2.49278274
_cell_length_c   7.98642710
_cell_angle_alpha   90.00000000
_cell_angle_beta   91.38818311
_cell_angle_gamma   90.00000000
_symmetry_Int_Tables_number   10
_chemical_formula_structural   Si
_cell_volume   49.63751372
_cell_formula_units_Z   2
loop_
 _symmetry_equiv_pos_site_id
 _symmetry_equiv_pos_as_xyz
  1  'x, y, z'
  2  '-x, -y, -z'
  3  '-x, y, -z'
  4  'x, -y, z'
loop_
 _atom_site_type_symbol
 _atom_site_label
 _atom_site_symmetry_multiplicity
 _atom_site_fract_x
 _atom_site_fract_y
 _atom_site_fract_z
 _atom_site_occupancy
  Si  Si0  2  0.00802438  0.00000000  0.65292523  1
# generated using pymatgen
data_ID_2
_symmetry_space_group_name_H-M   P4/nmm
_cell_length_a   3.62335943
_cell_length_b   3.62335943
_cell_length_c   4.72172000
_cell_angle_alpha   90.00000000
_cell_angle_beta   90.00000000
_cell_angle_gamma   90.00000000
_symmetry_Int_Tables_number   129
_chemical_formula_structural   Si
_cell_volume   61.99020374
_cell_formula_units_Z   4
loop_
 _symmetry_equiv_pos_site_id
 _symmetry_equiv_pos_as_xyz
  1  'x, y, z'
  2  '-y+1/2, x+1/2, z'
  3  '-x, -y, z'
  4  'y+1/2, -x+1/2, z'
  5  'x+1/2, -y+1/2, -z'
  6  '-y, -x, -z'
  7  '-x+1/2, y+1/2, -z'
  8  'y, x, -z'
  9  '-x+1/2, -y+1/2, -z'
  10  'y, -x, -z'
  11  'x+1/2, y+1/2, -z'
  12  '-y, x, -z'
  13  '-x, y, z'
  14  'y+1/2, x+1/2, z'
  15  'x, -y, z'
  16  '-y+1/2, -x+1/2, z'
loop_
 _atom_site_type_symbol
 _atom_site_label
 _atom_site_symmetry_multiplicity
 _atom_site_fract_x
 _atom_site_fract_y
 _atom_site_fract_z
 _atom_site_occupancy
  Si  Si0  2  0.00000000  0.00000000  0.50000000  1
  Si  Si1  2  0.00000000  0.50000000  0.11087382  1
# generated using pymatgen
data_ID_3
_symmetry_space_group_name_H-M   Pm-3m
_cell_length_a   2.53759306
_cell_length_b   2.53759306
_cell_length_c   2.53759306
_cell_angle_alpha   90.00000000
_cell_angle_beta   90.00000000
_cell_angle_gamma   90.00000000
_symmetry_Int_Tables_number   221
_chemical_formula_structural   Si
_cell_volume   16.34052221
_cell_formula_units_Z   1
loop_
 _symmetry_equiv_pos_site_id
 _symmetry_equiv_pos_as_xyz
  1  'x, y, z'
  2  '-x, -y, -z'
  3  '-y, x, z'
  4  'y, -x, -z'
  5  '-x, -y, z'
  6  'x, y, -z'
  7  'y, -x, z'
  8  '-y, x, -z'
  9  'x, -y, -z'
  10  '-x, y, z'
  11  '-y, -x, -z'
  12  'y, x, z'
  13  '-x, y, -z'
  14  'x, -y, z'
  15  'y, x, -z'
  16  '-y, -x, z'
  17  'z, x, y'
  18  '-z, -x, -y'
  19  'z, -y, x'
  20  '-z, y, -x'
  21  'z, -x, -y'
  22  '-z, x, y'
  23  'z, y, -x'
  24  '-z, -y, x'
  25  '-z, x, -y'
  26  'z, -x, y'
  27  '-z, -y, -x'
  28  'z, y, x'
  29  '-z, -x, y'
  30  'z, x, -y'
  31  '-z, y, x'
  32  'z, -y, -x'
  33  'y, z, x'
  34  '-y, -z, -x'
  35  'x, z, -y'
  36  '-x, -z, y'
  37  '-y, z, -x'
  38  'y, -z, x'
  39  '-x, z, y'
  40  'x, -z, -y'
  41  '-y, -z, x'
  42  'y, z, -x'
  43  '-x, -z, -y'
  44  'x, z, y'
  45  'y, -z, -x'
  46  '-y, z, x'
  47  'x, -z, y'
  48  '-x, z, -y'
loop_
 _atom_site_type_symbol
 _atom_site_label
 _atom_site_symmetry_multiplicity
 _atom_site_fract_x
 _atom_site_fract_y
 _atom_site_fract_z
 _atom_site_occupancy
  Si  Si0  1  0.00000000  0.00000000  0.00000000  1
# generated using pymatgen
data_ID_4
_symmetry_space_group_name_H-M   P6/mmm
_cell_length_a   4.40146401
_cell_length_b   4.40146401
_cell_length_c   4.68892973
_cell_angle_alpha   90.00000000
_cell_angle_beta   90.00000000
_cell_angle_gamma   120.00000000
_symmetry_Int_Tables_number   191
_chemical_formula_structural   Si
_cell_volume   78.66810073
_cell_formula_units_Z   4
loop_
 _symmetry_equiv_pos_site_id
 _symmetry_equiv_pos_as_xyz
  1  'x, y, z'
  2  '-x, -y, -z'
  3  'x-y, x, z'
  4  '-x+y, -x, -z'
  5  '-y, x-y, z'
  6  'y, -x+y, -z'
  7  '-x, -y, z'
  8  'x, y, -z'
  9  '-x+y, -x, z'
  10  'x-y, x, -z'
  11  'y, -x+y, z'
  12  '-y, x-y, -z'
  13  '-y, -x, -z'
  14  'y, x, z'
  15  '-x, -x+y, -z'
  16  'x, x-y, z'
  17  '-x+y, y, -z'
  18  'x-y, -y, z'
  19  'y, x, -z'
  20  '-y, -x, z'
  21  'x, x-y, -z'
  22  '-x, -x+y, z'
  23  'x-y, -y, -z'
  24  '-x+y, y, z'
loop_
 _atom_site_type_symbol
 _atom_site_label
 _atom_site_symmetry_multiplicity
 _atom_site_fract_x
 _atom_site_fract_y
 _atom_site_fract_z
 _atom_site_occupancy
  Si  Si0  2  0.33333333  0.66666667  0.50000000  1
  Si  Si1  1  0.00000000  0.00000000  0.00000000  1
  Si  Si2  1  0.00000000  0.00000000  0.50000000  1
# generated using pymatgen
data_ID_5
_symmetry_space_group_name_H-M   P6/m
_cell_length_a   7.01947136
_cell_length_b   7.01947136
_cell_length_c   4.98974293
_cell_angle_alpha   90.00000000
_cell_angle_beta   90.00000000
_cell_angle_gamma   120.00000000
_symmetry_Int_Tables_number   175
_chemical_formula_structural   Si
_cell_volume   212.92056774
_cell_formula_units_Z   8
loop_
 _symmetry_equiv_pos_site_id
 _symmetry_equiv_pos_as_xyz
  1  'x, y, z'
  2  '-x, -y, -z'
  3  'x-y, x, z'
  4  '-x+y, -x, -z'
  5  '-y, x-y, z'
  6  'y, -x+y, -z'
  7  '-x, -y, z'
  8  'x, y, -z'
  9  '-x+y, -x, z'
  10  'x-y, x, -z'
  11  'y, -x+y, z'
  12  '-y, x-y, -z'
loop_
 _atom_site_type_symbol
 _atom_site_label
 _atom_site_symmetry_multiplicity
 _atom_site_fract_x
 _atom_site_fract_y
 _atom_site_fract_z
 _atom_site_occupancy
  Si  Si0  6  0.00041933  0.67074186  0.00000000  1
  Si  Si1  2  0.00000000  0.00000000  0.26264214  1
# generated using pymatgen
data_ID_6
_symmetry_space_group_name_H-M   P6/mmm
_cell_length_a   4.13432218
_cell_length_b   4.13432218
_cell_length_c   2.63287684
_cell_angle_alpha   90.00000000
_cell_angle_beta   90.00000000
_cell_angle_gamma   120.00000000
_symmetry_Int_Tables_number   191
_chemical_formula_structural   Si
_cell_volume   38.97353613
_cell_formula_units_Z   2
loop_
 _symmetry_equiv_pos_site_id
 _symmetry_equiv_pos_as_xyz
  1  'x, y, z'
  2  '-x, -y, -z'
  3  'x-y, x, z'
  4  '-x+y, -x, -z'
  5  '-y, x-y, z'
  6  'y, -x+y, -z'
  7  '-x, -y, z'
  8  'x, y, -z'
  9  '-x+y, -x, z'
  10  'x-y, x, -z'
  11  'y, -x+y, z'
  12  '-y, x-y, -z'
  13  '-y, -x, -z'
  14  'y, x, z'
  15  '-x, -x+y, -z'
  16  'x, x-y, z'
  17  '-x+y, y, -z'
  18  'x-y, -y, z'
  19  'y, x, -z'
  20  '-y, -x, z'
  21  'x, x-y, -z'
  22  '-x, -x+y, z'
  23  'x-y, -y, -z'
  24  '-x+y, y, z'
loop_
 _atom_site_type_symbol
 _atom_site_label
 _atom_site_symmetry_multiplicity
 _atom_site_fract_x
 _atom_site_fract_y
 _atom_site_fract_z
 _atom_site_occupancy
  Si  Si0  2  0.33333333  0.66666667  0.00000000  1
# generated using pymatgen
data_ID_7
_symmetry_space_group_name_H-M   I4/mmm
_cell_length_a   3.37481820
_cell_length_b   3.37481820
_cell_length_c   2.57576534
_cell_angle_alpha   90.00000000
_cell_angle_beta   90.00000000
_cell_angle_gamma   90.00000000
_symmetry_Int_Tables_number   139
_chemical_formula_structural   Si
_cell_volume   29.33641619
_cell_formula_units_Z   2
loop_
 _symmetry_equiv_pos_site_id
 _symmetry_equiv_pos_as_xyz
  1  'x, y, z'
  2  '-x, -y, -z'
  3  '-y, x, z'
  4  'y, -x, -z'
  5  '-x, -y, z'
  6  'x, y, -z'
  7  'y, -x, z'
  8  '-y, x, -z'
  9  'x, -y, -z'
  10  '-x, y, z'
  11  '-y, -x, -z'
  12  'y, x, z'
  13  '-x, y, -z'
  14  'x, -y, z'
  15  'y, x, -z'
  16  '-y, -x, z'
  17  'x+1/2, y+1/2, z+1/2'
  18  '-x+1/2, -y+1/2, -z+1/2'
  19  '-y+1/2, x+1/2, z+1/2'
  20  'y+1/2, -x+1/2, -z+1/2'
  21  '-x+1/2, -y+1/2, z+1/2'
  22  'x+1/2, y+1/2, -z+1/2'
  23  'y+1/2, -x+1/2, z+1/2'
  24  '-y+1/2, x+1/2, -z+1/2'
  25  'x+1/2, -y+1/2, -z+1/2'
  26  '-x+1/2, y+1/2, z+1/2'
  27  '-y+1/2, -x+1/2, -z+1/2'
  28  'y+1/2, x+1/2, z+1/2'
  29  '-x+1/2, y+1/2, -z+1/2'
  30  'x+1/2, -y+1/2, z+1/2'
  31  'y+1/2, x+1/2, -z+1/2'
  32  '-y+1/2, -x+1/2, z+1/2'
loop_
 _atom_site_type_symbol
 _atom_site_label
 _atom_site_symmetry_multiplicity
 _atom_site_fract_x
 _atom_site_fract_y
 _atom_site_fract_z
 _atom_site_occupancy
  Si  Si0  2  0.00000000  0.00000000  0.00000000  1
# generated using pymatgen
data_ID_8
_symmetry_space_group_name_H-M   P6/mmm
_cell_length_a   2.65523863
_cell_length_b   2.65523863
_cell_length_c   2.47102819
_cell_angle_alpha   90.00000000
_cell_angle_beta   90.00000000
_cell_angle_gamma   120.00000000
_symmetry_Int_Tables_number   191
_chemical_formula_structural   Si
_cell_volume   15.08743627
_cell_formula_units_Z   1
loop_
 _symmetry_equiv_pos_site_id
 _symmetry_equiv_pos_as_xyz
  1  'x, y, z'
  2  '-x, -y, -z'
  3  'x-y, x, z'
  4  '-x+y, -x, -z'
  5  '-y, x-y, z'
  6  'y, -x+y, -z'
  7  '-x, -y, z'
  8  'x, y, -z'
  9  '-x+y, -x, z'
  10  'x-y, x, -z'
  11  'y, -x+y, z'
  12  '-y, x-y, -z'
  13  '-y, -x, -z'
  14  'y, x, z'
  15  '-x, -x+y, -z'
  16  'x, x-y, z'
  17  '-x+y, y, -z'
  18  'x-y, -y, z'
  19  'y, x, -z'
  20  '-y, -x, z'
  21  'x, x-y, -z'
  22  '-x, -x+y, z'
  23  'x-y, -y, -z'
  24  '-x+y, y, z'
loop_
 _atom_site_type_symbol
 _atom_site_label
 _atom_site_symmetry_multiplicity
 _atom_site_fract_x
 _atom_site_fract_y
 _atom_site_fract_z
 _atom_site_occupancy
  Si  Si0  1  0.00000000  0.00000000  0.00000000  1
# generated using pymatgen
data_ID_9
_symmetry_space_group_name_H-M   Pm-3m
_cell_length_a   2.53725714
_cell_length_b   2.53725714
_cell_length_c   2.53725714
_cell_angle_alpha   90.00000000
_cell_angle_beta   90.00000000
_cell_angle_gamma   90.00000000
_symmetry_Int_Tables_number   221
_chemical_formula_structural   Si
_cell_volume   16.33403388
_cell_formula_units_Z   1
loop_
 _symmetry_equiv_pos_site_id
 _symmetry_equiv_pos_as_xyz
  1  'x, y, z'
  2  '-x, -y, -z'
  3  '-y, x, z'
  4  'y, -x, -z'
  5  '-x, -y, z'
  6  'x, y, -z'
  7  'y, -x, z'
  8  '-y, x, -z'
  9  'x, -y, -z'
  10  '-x, y, z'
  11  '-y, -x, -z'
  12  'y, x, z'
  13  '-x, y, -z'
  14  'x, -y, z'
  15  'y, x, -z'
  16  '-y, -x, z'
  17  'z, x, y'
  18  '-z, -x, -y'
  19  'z, -y, x'
  20  '-z, y, -x'
  21  'z, -x, -y'
  22  '-z, x, y'
  23  'z, y, -x'
  24  '-z, -y, x'
  25  '-z, x, -y'
  26  'z, -x, y'
  27  '-z, -y, -x'
  28  'z, y, x'
  29  '-z, -x, y'
  30  'z, x, -y'
  31  '-z, y, x'
  32  'z, -y, -x'
  33  'y, z, x'
  34  '-y, -z, -x'
  35  'x, z, -y'
  36  '-x, -z, y'
  37  '-y, z, -x'
  38  'y, -z, x'
  39  '-x, z, y'
  40  'x, -z, -y'
  41  '-y, -z, x'
  42  'y, z, -x'
  43  '-x, -z, -y'
  44  'x, z, y'
  45  'y, -z, -x'
  46  '-y, z, x'
  47  'x, -z, y'
  48  '-x, z, -y'
loop_
 _atom_site_type_symbol
 _atom_site_label
 _atom_site_symmetry_multiplicity
 _atom_site_fract_x
 _atom_site_fract_y
 _atom_site_fract_z
 _atom_site_occupancy
  Si  Si0  1  0.50000000  0.50000000  0.50000000  1
# generated using pymatgen
data_ID_10
_symmetry_space_group_name_H-M   P6mm
_cell_length_a   4.70449899
_cell_length_b   4.70449899
_cell_length_c   10.56035040
_cell_angle_alpha   90.00000000
_cell_angle_beta   90.00000000
_cell_angle_gamma   120.00000000
_symmetry_Int_Tables_number   183
_chemical_formula_structural   Si
_cell_volume   202.41175009
_cell_formula_units_Z   8
loop_
 _symmetry_equiv_pos_site_id
 _symmetry_equiv_pos_as_xyz
  1  'x, y, z'
  2  'x-y, x, z'
  3  '-y, x-y, z'
  4  '-x, -y, z'
  5  '-x+y, -x, z'
  6  'y, -x+y, z'
  7  'y, x, z'
  8  'x, x-y, z'
  9  'x-y, -y, z'
  10  '-y, -x, z'
  11  '-x, -x+y, z'
  12  '-x+y, y, z'
loop_
 _atom_site_type_symbol
 _atom_site_label
 _atom_site_symmetry_multiplicity
 _atom_site_fract_x
 _atom_site_fract_y
 _atom_site_fract_z
 _atom_site_occupancy
  Si  Si0  3  0.00000000  0.50000000  0.40842008  1
  Si  Si1  2  0.33333333  0.66666667  0.62384129  1
  Si  Si2  2  0.33333333  0.66666667  0.85859706  1
  Si  Si3  1  0.00000000  0.00000000  0.31191832  1
# generated using pymatgen
data_ID_11
_symmetry_space_group_name_H-M   P4_2/mmc
_cell_length_a   3.31773190
_cell_length_b   3.31773190
_cell_length_c   6.88895662
_cell_angle_alpha   90.00000000
_cell_angle_beta   90.00000000
_cell_angle_gamma   90.00000000
_symmetry_Int_Tables_number   131
_chemical_formula_structural   Si
_cell_volume   75.82912218
_cell_formula_units_Z   4
loop_
 _symmetry_equiv_pos_site_id
 _symmetry_equiv_pos_as_xyz
  1  'x, y, z'
  2  '-x, -y, -z'
  3  '-y, x, z+1/2'
  4  'y, -x, -z+1/2'
  5  '-x, -y, z'
  6  'x, y, -z'
  7  'y, -x, z+1/2'
  8  '-y, x, -z+1/2'
  9  'x, -y, -z'
  10  '-x, y, z'
  11  '-y, -x, -z+1/2'
  12  'y, x, z+1/2'
  13  '-x, y, -z'
  14  'x, -y, z'
  15  'y, x, -z+1/2'
  16  '-y, -x, z+1/2'
loop_
 _atom_site_type_symbol
 _atom_site_label
 _atom_site_symmetry_multiplicity
 _atom_site_fract_x
 _atom_site_fract_y
 _atom_site_fract_z
 _atom_site_occupancy
  Si  Si0  2  0.00000000  0.00000000  0.25000000  1
  Si  Si1  2  0.00000000  0.50000000  0.50000000  1
# generated using pymatgen
data_ID_12
_symmetry_space_group_name_H-M   C2/m
_cell_length_a   12.01292209
_cell_length_b   3.55645327
_cell_length_c   8.18439665
_cell_angle_alpha   90.00000000
_cell_angle_beta   123.03212273
_cell_angle_gamma   90.00000000
_symmetry_Int_Tables_number   12
_chemical_formula_structural   Si
_cell_volume   293.14711125
_cell_formula_units_Z   16
loop_
 _symmetry_equiv_pos_site_id
 _symmetry_equiv_pos_as_xyz
  1  'x, y, z'
  2  '-x, -y, -z'
  3  '-x, y, -z'
  4  'x, -y, z'
  5  'x+1/2, y+1/2, z'
  6  '-x+1/2, -y+1/2, -z'
  7  '-x+1/2, y+1/2, -z'
  8  'x+1/2, -y+1/2, z'
loop_
 _atom_site_type_symbol
 _atom_site_label
 _atom_site_symmetry_multiplicity
 _atom_site_fract_x
 _atom_site_fract_y
 _atom_site_fract_z
 _atom_site_occupancy
  Si  Si0  4  0.04552255  0.50000000  0.26519435  1
  Si  Si1  4  0.09325742  0.00000000  0.48997938  1
  Si  Si2  4  0.13424888  0.00000000  0.95092299  1
  Si  Si3  4  0.21283981  0.50000000  0.18878510  1
# generated using pymatgen
data_ID_13
_symmetry_space_group_name_H-M   P4_2/mmc
_cell_length_a   5.49762844
_cell_length_b   5.49762844
_cell_length_c   5.76458655
_cell_angle_alpha   90.00000000
_cell_angle_beta   90.00000000
_cell_angle_gamma   90.00000000
_symmetry_Int_Tables_number   131
_chemical_formula_structural   Si
_cell_volume   174.22839364
_cell_formula_units_Z   8
loop_
 _symmetry_equiv_pos_site_id
 _symmetry_equiv_pos_as_xyz
  1  'x, y, z'
  2  '-x, -y, -z'
  3  '-y, x, z+1/2'
  4  'y, -x, -z+1/2'
  5  '-x, -y, z'
  6  'x, y, -z'
  7  'y, -x, z+1/2'
  8  '-y, x, -z+1/2'
  9  'x, -y, -z'
  10  '-x, y, z'
  11  '-y, -x, -z+1/2'
  12  'y, x, z+1/2'
  13  '-x, y, -z'
  14  'x, -y, z'
  15  'y, x, -z+1/2'
  16  '-y, -x, z+1/2'
loop_
 _atom_site_type_symbol
 _atom_site_label
 _atom_site_symmetry_multiplicity
 _atom_site_fract_x
 _atom_site_fract_y
 _atom_site_fract_z
 _atom_site_occupancy
  Si  Si0  4  0.00000000  0.50000000  0.20022037  1
  Si  Si1  4  0.28975435  0.50000000  0.50000000  1
# generated using pymatgen
data_ID_14
_symmetry_space_group_name_H-M   P4_122
_cell_length_a   4.59211778
_cell_length_b   4.59211778
_cell_length_c   6.25215630
_cell_angle_alpha   90.00000000
_cell_angle_beta   90.00000000
_cell_angle_gamma   90.00000000
_symmetry_Int_Tables_number   91
_chemical_formula_structural   Si
_cell_volume   131.84263185
_cell_formula_units_Z   8
loop_
 _symmetry_equiv_pos_site_id
 _symmetry_equiv_pos_as_xyz
  1  'x, y, z'
  2  '-y, x, z+1/4'
  3  '-x, -y, z+1/2'
  4  'y, -x, z+3/4'
  5  'x, -y, -z+1/2'
  6  '-y, -x, -z+1/4'
  7  '-x, y, -z'
  8  'y, x, -z+3/4'
loop_
 _atom_site_type_symbol
 _atom_site_label
 _atom_site_symmetry_multiplicity
 _atom_site_fract_x
 _atom_site_fract_y
 _atom_site_fract_z
 _atom_site_occupancy
  Si  Si0  4  0.21462371  0.21462371  0.87500000  1
  Si  Si1  4  0.21950116  0.50000000  0.25000000  1
# generated using pymatgen
data_ID_15
_symmetry_space_group_name_H-M   I4/mmm
_cell_length_a   2.51774600
_cell_length_b   2.51774600
_cell_length_c   9.94378930
_cell_angle_alpha   90.00000000
_cell_angle_beta   90.00000000
_cell_angle_gamma   90.00000000
_symmetry_Int_Tables_number   139
_chemical_formula_structural   Si
_cell_volume   63.03412727
_cell_formula_units_Z   4
loop_
 _symmetry_equiv_pos_site_id
 _symmetry_equiv_pos_as_xyz
  1  'x, y, z'
  2  '-x, -y, -z'
  3  '-y, x, z'
  4  'y, -x, -z'
  5  '-x, -y, z'
  6  'x, y, -z'
  7  'y, -x, z'
  8  '-y, x, -z'
  9  'x, -y, -z'
  10  '-x, y, z'
  11  '-y, -x, -z'
  12  'y, x, z'
  13  '-x, y, -z'
  14  'x, -y, z'
  15  'y, x, -z'
  16  '-y, -x, z'
  17  'x+1/2, y+1/2, z+1/2'
  18  '-x+1/2, -y+1/2, -z+1/2'
  19  '-y+1/2, x+1/2, z+1/2'
  20  'y+1/2, -x+1/2, -z+1/2'
  21  '-x+1/2, -y+1/2, z+1/2'
  22  'x+1/2, y+1/2, -z+1/2'
  23  'y+1/2, -x+1/2, z+1/2'
  24  '-y+1/2, x+1/2, -z+1/2'
  25  'x+1/2, -y+1/2, -z+1/2'
  26  '-x+1/2, y+1/2, z+1/2'
  27  '-y+1/2, -x+1/2, -z+1/2'
  28  'y+1/2, x+1/2, z+1/2'
  29  '-x+1/2, y+1/2, -z+1/2'
  30  'x+1/2, -y+1/2, z+1/2'
  31  'y+1/2, x+1/2, -z+1/2'
  32  '-y+1/2, -x+1/2, z+1/2'
loop_
 _atom_site_type_symbol
 _atom_site_label
 _atom_site_symmetry_multiplicity
 _atom_site_fract_x
 _atom_site_fract_y
 _atom_site_fract_z
 _atom_site_occupancy
  Si  Si0  4  0.00000000  0.00000000  0.37467723  1
# generated using pymatgen
data_ID_16
_symmetry_space_group_name_H-M   I4/mmm
_cell_length_a   3.37550820
_cell_length_b   3.37550820
_cell_length_c   2.57717300
_cell_angle_alpha   90.00000000
_cell_angle_beta   90.00000000
_cell_angle_gamma   90.00000000
_symmetry_Int_Tables_number   139
_chemical_formula_structural   Si
_cell_volume   29.36445249
_cell_formula_units_Z   2
loop_
 _symmetry_equiv_pos_site_id
 _symmetry_equiv_pos_as_xyz
  1  'x, y, z'
  2  '-x, -y, -z'
  3  '-y, x, z'
  4  'y, -x, -z'
  5  '-x, -y, z'
  6  'x, y, -z'
  7  'y, -x, z'
  8  '-y, x, -z'
  9  'x, -y, -z'
  10  '-x, y, z'
  11  '-y, -x, -z'
  12  'y, x, z'
  13  '-x, y, -z'
  14  'x, -y, z'
  15  'y, x, -z'
  16  '-y, -x, z'
  17  'x+1/2, y+1/2, z+1/2'
  18  '-x+1/2, -y+1/2, -z+1/2'
  19  '-y+1/2, x+1/2, z+1/2'
  20  'y+1/2, -x+1/2, -z+1/2'
  21  '-x+1/2, -y+1/2, z+1/2'
  22  'x+1/2, y+1/2, -z+1/2'
  23  'y+1/2, -x+1/2, z+1/2'
  24  '-y+1/2, x+1/2, -z+1/2'
  25  'x+1/2, -y+1/2, -z+1/2'
  26  '-x+1/2, y+1/2, z+1/2'
  27  '-y+1/2, -x+1/2, -z+1/2'
  28  'y+1/2, x+1/2, z+1/2'
  29  '-x+1/2, y+1/2, -z+1/2'
  30  'x+1/2, -y+1/2, z+1/2'
  31  'y+1/2, x+1/2, -z+1/2'
  32  '-y+1/2, -x+1/2, z+1/2'
loop_
 _atom_site_type_symbol
 _atom_site_label
 _atom_site_symmetry_multiplicity
 _atom_site_fract_x
 _atom_site_fract_y
 _atom_site_fract_z
 _atom_site_occupancy
  Si  Si0  2  0.00000000  0.00000000  0.00000000  1
# generated using pymatgen
data_ID_17
_symmetry_space_group_name_H-M   P4/mmm
_cell_length_a   3.54022996
_cell_length_b   3.54022996
_cell_length_c   9.20904193
_cell_angle_alpha   90.00000000
_cell_angle_beta   90.00000000
_cell_angle_gamma   90.00000000
_symmetry_Int_Tables_number   123
_chemical_formula_structural   Si
_cell_volume   115.41902394
_cell_formula_units_Z   4
loop_
 _symmetry_equiv_pos_site_id
 _symmetry_equiv_pos_as_xyz
  1  'x, y, z'
  2  '-x, -y, -z'
  3  '-y, x, z'
  4  'y, -x, -z'
  5  '-x, -y, z'
  6  'x, y, -z'
  7  'y, -x, z'
  8  '-y, x, -z'
  9  'x, -y, -z'
  10  '-x, y, z'
  11  '-y, -x, -z'
  12  'y, x, z'
  13  '-x, y, -z'
  14  'x, -y, z'
  15  'y, x, -z'
  16  '-y, -x, z'
loop_
 _atom_site_type_symbol
 _atom_site_label
 _atom_site_symmetry_multiplicity
 _atom_site_fract_x
 _atom_site_fract_y
 _atom_site_fract_z
 _atom_site_occupancy
  Si  Si0  2  0.00000000  0.00000000  0.19616031  1
  Si  Si1  2  0.00000000  0.50000000  0.00000000  1
# generated using pymatgen
data_ID_18
_symmetry_space_group_name_H-M   P4bm
_cell_length_a   5.08497646
_cell_length_b   5.08497646
_cell_length_c   4.67289848
_cell_angle_alpha   90.00000000
_cell_angle_beta   90.00000000
_cell_angle_gamma   90.00000000
_symmetry_Int_Tables_number   100
_chemical_formula_structural   Si
_cell_volume   120.82706897
_cell_formula_units_Z   8
loop_
 _symmetry_equiv_pos_site_id
 _symmetry_equiv_pos_as_xyz
  1  'x, y, z'
  2  '-y, x, z'
  3  '-x, -y, z'
  4  'y, -x, z'
  5  '-x+1/2, y+1/2, z'
  6  'y+1/2, x+1/2, z'
  7  'x+1/2, -y+1/2, z'
  8  '-y+1/2, -x+1/2, z'
loop_
 _atom_site_type_symbol
 _atom_site_label
 _atom_site_symmetry_multiplicity
 _atom_site_fract_x
 _atom_site_fract_y
 _atom_site_fract_z
 _atom_site_occupancy
  Si  Si0  4  0.17925846  0.67925846  0.19014254  1
  Si  Si1  2  0.00000000  0.00000000  0.77497707  1
  Si  Si2  2  0.00000000  0.50000000  0.66965087  1
# generated using pymatgen
data_ID_19
_symmetry_space_group_name_H-M   P6/mmm
_cell_length_a   8.10212779
_cell_length_b   8.10212779
_cell_length_c   4.59791680
_cell_angle_alpha   90.00000000
_cell_angle_beta   90.00000000
_cell_angle_gamma   120.00000000
_symmetry_Int_Tables_number   191
_chemical_formula_structural   Si
_cell_volume   261.39057102
_cell_formula_units_Z   8
loop_
 _symmetry_equiv_pos_site_id
 _symmetry_equiv_pos_as_xyz
  1  'x, y, z'
  2  '-x, -y, -z'
  3  'x-y, x, z'
  4  '-x+y, -x, -z'
  5  '-y, x-y, z'
  6  'y, -x+y, -z'
  7  '-x, -y, z'
  8  'x, y, -z'
  9  '-x+y, -x, z'
  10  'x-y, x, -z'
  11  'y, -x+y, z'
  12  '-y, x-y, -z'
  13  '-y, -x, -z'
  14  'y, x, z'
  15  '-x, -x+y, -z'
  16  'x, x-y, z'
  17  '-x+y, y, -z'
  18  'x-y, -y, z'
  19  'y, x, -z'
  20  '-y, -x, z'
  21  'x, x-y, -z'
  22  '-x, -x+y, z'
  23  'x-y, -y, -z'
  24  '-x+y, y, z'
loop_
 _atom_site_type_symbol
 _atom_site_label
 _atom_site_symmetry_multiplicity
 _atom_site_fract_x
 _atom_site_fract_y
 _atom_site_fract_z
 _atom_site_occupancy
  Si  Si0  3  0.00000000  0.50000000  0.00000000  1
  Si  Si1  3  0.00000000  0.50000000  0.50000000  1
  Si  Si2  2  0.33333333  0.66666667  0.00000000  1
