# generated using pymatgen
data_ID_0
_symmetry_space_group_name_H-M   Pna2_1
_cell_length_a   2.80074281
_cell_length_b   12.41213892
_cell_length_c   7.11450788
_cell_angle_alpha   90.00000000
_cell_angle_beta   90.00000000
_cell_angle_gamma   90.00000000
_symmetry_Int_Tables_number   33
_chemical_formula_structural   CuAu
_cell_volume   247.32312304
_cell_formula_units_Z   8
loop_
 _symmetry_equiv_pos_site_id
 _symmetry_equiv_pos_as_xyz
  1  'x, y, z'
  2  '-x, -y, z+1/2'
  3  '-x+1/2, y+1/2, z+1/2'
  4  'x+1/2, -y+1/2, z'
loop_
 _atom_site_type_symbol
 _atom_site_label
 _atom_site_symmetry_multiplicity
 _atom_site_fract_x
 _atom_site_fract_y
 _atom_site_fract_z
 _atom_site_occupancy
  Cu  Cu0  4  0.24853561  0.66870334  0.66282298  1
  Cu  Cu1  4  0.24909182  0.98211963  0.54280623  1
  Au  Au2  4  0.24915308  0.14807980  0.80504768  1
  Au  Au3  4  0.24973626  0.84644183  0.96713821  1
# generated using pymatgen
data_ID_1
_symmetry_space_group_name_H-M   P4/nbm
_cell_length_a   5.21574395
_cell_length_b   5.21574395
_cell_length_c   9.73733172
_cell_angle_alpha   90.00000000
_cell_angle_beta   90.00000000
_cell_angle_gamma   90.00000000
_symmetry_Int_Tables_number   125
_chemical_formula_structural   CuAu
_cell_volume   264.89422512
_cell_formula_units_Z   8
loop_
 _symmetry_equiv_pos_site_id
 _symmetry_equiv_pos_as_xyz
  1  'x, y, z'
  2  '-y, x, z'
  3  '-x, -y, z'
  4  'y, -x, z'
  5  'x, -y, -z'
  6  '-y, -x, -z'
  7  '-x, y, -z'
  8  'y, x, -z'
  9  '-x+1/2, -y+1/2, -z'
  10  'y+1/2, -x+1/2, -z'
  11  'x+1/2, y+1/2, -z'
  12  '-y+1/2, x+1/2, -z'
  13  '-x+1/2, y+1/2, z'
  14  'y+1/2, x+1/2, z'
  15  'x+1/2, -y+1/2, z'
  16  '-y+1/2, -x+1/2, z'
loop_
 _atom_site_type_symbol
 _atom_site_label
 _atom_site_symmetry_multiplicity
 _atom_site_fract_x
 _atom_site_fract_y
 _atom_site_fract_z
 _atom_site_occupancy
  Cu  Cu0  8  0.16739723  0.33260277  0.39395317  1
  Au  Au1  8  0.18249123  0.31750877  0.13124333  1
# generated using pymatgen
data_ID_2
_symmetry_space_group_name_H-M   P4_2/mbc
_cell_length_a   9.43714535
_cell_length_b   9.43714535
_cell_length_c   2.73724503
_cell_angle_alpha   90.00000000
_cell_angle_beta   90.00000000
_cell_angle_gamma   90.00000000
_symmetry_Int_Tables_number   135
_chemical_formula_structural   CuAu
_cell_volume   243.77825567
_cell_formula_units_Z   8
loop_
 _symmetry_equiv_pos_site_id
 _symmetry_equiv_pos_as_xyz
  1  'x, y, z'
  2  '-x, -y, -z'
  3  '-y, x, z+1/2'
  4  'y, -x, -z+1/2'
  5  '-x, -y, z'
  6  'x, y, -z'
  7  'y, -x, z+1/2'
  8  '-y, x, -z+1/2'
  9  'x+1/2, -y+1/2, -z'
  10  '-x+1/2, y+1/2, z'
  11  '-y+1/2, -x+1/2, -z+1/2'
  12  'y+1/2, x+1/2, z+1/2'
  13  '-x+1/2, y+1/2, -z'
  14  'x+1/2, -y+1/2, z'
  15  'y+1/2, x+1/2, -z+1/2'
  16  '-y+1/2, -x+1/2, z+1/2'
loop_
 _atom_site_type_symbol
 _atom_site_label
 _atom_site_symmetry_multiplicity
 _atom_site_fract_x
 _atom_site_fract_y
 _atom_site_fract_z
 _atom_site_occupancy
  Cu  Cu0  8  0.00045551  0.65283960  0.00000000  1
  Au  Au1  8  0.12335289  0.85183536  0.50000000  1
# generated using pymatgen
data_ID_3
_symmetry_space_group_name_H-M   Cmmm
_cell_length_a   5.90192412
_cell_length_b   6.67210552
_cell_length_c   2.82522750
_cell_angle_alpha   90.00000000
_cell_angle_beta   90.00000000
_cell_angle_gamma   90.00000000
_symmetry_Int_Tables_number   65
_chemical_formula_structural   CuAu
_cell_volume   111.25254447
_cell_formula_units_Z   4
loop_
 _symmetry_equiv_pos_site_id
 _symmetry_equiv_pos_as_xyz
  1  'x, y, z'
  2  '-x, -y, -z'
  3  '-x, -y, z'
  4  'x, y, -z'
  5  'x, -y, -z'
  6  '-x, y, z'
  7  '-x, y, -z'
  8  'x, -y, z'
  9  'x+1/2, y+1/2, z'
  10  '-x+1/2, -y+1/2, -z'
  11  '-x+1/2, -y+1/2, z'
  12  'x+1/2, y+1/2, -z'
  13  'x+1/2, -y+1/2, -z'
  14  '-x+1/2, y+1/2, z'
  15  '-x+1/2, y+1/2, -z'
  16  'x+1/2, -y+1/2, z'
loop_
 _atom_site_type_symbol
 _atom_site_label
 _atom_site_symmetry_multiplicity
 _atom_site_fract_x
 _atom_site_fract_y
 _atom_site_fract_z
 _atom_site_occupancy
  Cu  Cu0  4  0.21862939  0.00000000  0.00000000  1
  Au  Au1  4  0.00000000  0.27612963  0.50000000  1
# generated using pymatgen
data_ID_4
_symmetry_space_group_name_H-M   P4/mmm
_cell_length_a   8.96307929
_cell_length_b   8.96307929
_cell_length_c   4.32809529
_cell_angle_alpha   90.00000000
_cell_angle_beta   90.00000000
_cell_angle_gamma   90.00000000
_symmetry_Int_Tables_number   123
_chemical_formula_structural   CuAu
_cell_volume   347.70528407
_cell_formula_units_Z   8
loop_
 _symmetry_equiv_pos_site_id
 _symmetry_equiv_pos_as_xyz
  1  'x, y, z'
  2  '-x, -y, -z'
  3  '-y, x, z'
  4  'y, -x, -z'
  5  '-x, -y, z'
  6  'x, y, -z'
  7  'y, -x, z'
  8  '-y, x, -z'
  9  'x, -y, -z'
  10  '-x, y, z'
  11  '-y, -x, -z'
  12  'y, x, z'
  13  '-x, y, -z'
  14  'x, -y, z'
  15  'y, x, -z'
  16  '-y, -x, z'
loop_
 _atom_site_type_symbol
 _atom_site_label
 _atom_site_symmetry_multiplicity
 _atom_site_fract_x
 _atom_site_fract_y
 _atom_site_fract_z
 _atom_site_occupancy
  Cu  Cu0  4  0.00000000  0.18853688  0.00000000  1
  Cu  Cu1  2  0.00000000  0.50000000  0.00000000  1
  Cu  Cu2  1  0.00000000  0.00000000  0.50000000  1
  Cu  Cu3  1  0.50000000  0.50000000  0.50000000  1
  Au  Au4  4  0.00000000  0.31974757  0.50000000  1
  Au  Au5  4  0.22323483  0.50000000  0.50000000  1
# generated using pymatgen
data_ID_5
_symmetry_space_group_name_H-M   P4_2/ncm
_cell_length_a   7.14008839
_cell_length_b   7.14008839
_cell_length_c   4.99191939
_cell_angle_alpha   90.00000000
_cell_angle_beta   90.00000000
_cell_angle_gamma   90.00000000
_symmetry_Int_Tables_number   138
_chemical_formula_structural   CuAu
_cell_volume   254.49235425
_cell_formula_units_Z   8
loop_
 _symmetry_equiv_pos_site_id
 _symmetry_equiv_pos_as_xyz
  1  'x, y, z'
  2  '-y+1/2, x+1/2, z+1/2'
  3  '-x, -y, z'
  4  'y+1/2, -x+1/2, z+1/2'
  5  'x+1/2, -y+1/2, -z'
  6  '-y, -x, -z+1/2'
  7  '-x+1/2, y+1/2, -z'
  8  'y, x, -z+1/2'
  9  '-x+1/2, -y+1/2, -z+1/2'
  10  'y, -x, -z'
  11  'x+1/2, y+1/2, -z+1/2'
  12  '-y, x, -z'
  13  '-x, y, z+1/2'
  14  'y+1/2, x+1/2, z'
  15  'x, -y, z+1/2'
  16  '-y+1/2, -x+1/2, z'
loop_
 _atom_site_type_symbol
 _atom_site_label
 _atom_site_symmetry_multiplicity
 _atom_site_fract_x
 _atom_site_fract_y
 _atom_site_fract_z
 _atom_site_occupancy
  Cu  Cu0  8  0.12315254  0.62315254  0.25110917  1
  Au  Au1  4  0.00000000  0.00000000  0.25000000  1
  Au  Au2  4  0.25000000  0.25000000  0.25000000  1
# generated using pymatgen
data_ID_6
_symmetry_space_group_name_H-M   P6/mmm
_cell_length_a   5.23997664
_cell_length_b   5.23997664
_cell_length_c   14.17773694
_cell_angle_alpha   90.00000000
_cell_angle_beta   90.00000000
_cell_angle_gamma   120.00000000
_symmetry_Int_Tables_number   191
_chemical_formula_structural   CuAu
_cell_volume   337.12910529
_cell_formula_units_Z   8
loop_
 _symmetry_equiv_pos_site_id
 _symmetry_equiv_pos_as_xyz
  1  'x, y, z'
  2  '-x, -y, -z'
  3  'x-y, x, z'
  4  '-x+y, -x, -z'
  5  '-y, x-y, z'
  6  'y, -x+y, -z'
  7  '-x, -y, z'
  8  'x, y, -z'
  9  '-x+y, -x, z'
  10  'x-y, x, -z'
  11  'y, -x+y, z'
  12  '-y, x-y, -z'
  13  '-y, -x, -z'
  14  'y, x, z'
  15  '-x, -x+y, -z'
  16  'x, x-y, z'
  17  '-x+y, y, -z'
  18  'x-y, -y, z'
  19  'y, x, -z'
  20  '-y, -x, z'
  21  'x, x-y, -z'
  22  '-x, -x+y, z'
  23  'x-y, -y, -z'
  24  '-x+y, y, z'
loop_
 _atom_site_type_symbol
 _atom_site_label
 _atom_site_symmetry_multiplicity
 _atom_site_fract_x
 _atom_site_fract_y
 _atom_site_fract_z
 _atom_site_occupancy
  Cu  Cu0  2  0.00000000  0.00000000  0.33421603  1
  Cu  Cu1  2  0.33333333  0.66666667  0.00000000  1
  Cu  Cu2  2  0.33333333  0.66666667  0.50000000  1
  Cu  Cu3  1  0.00000000  0.00000000  0.00000000  1
  Cu  Cu4  1  0.00000000  0.00000000  0.50000000  1
  Au  Au5  6  0.00000000  0.50000000  0.34402108  1
  Au  Au6  2  0.00000000  0.00000000  0.16675000  1
# generated using pymatgen
data_ID_7
_symmetry_space_group_name_H-M   P4/mmm
_cell_length_a   2.79023139
_cell_length_b   2.79023139
_cell_length_c   3.59414200
_cell_angle_alpha   90.00000000
_cell_angle_beta   90.00000000
_cell_angle_gamma   90.00000000
_symmetry_Int_Tables_number   123
_chemical_formula_structural   CuAu
_cell_volume   27.98180163
_cell_formula_units_Z   1
loop_
 _symmetry_equiv_pos_site_id
 _symmetry_equiv_pos_as_xyz
  1  'x, y, z'
  2  '-x, -y, -z'
  3  '-y, x, z'
  4  'y, -x, -z'
  5  '-x, -y, z'
  6  'x, y, -z'
  7  'y, -x, z'
  8  '-y, x, -z'
  9  'x, -y, -z'
  10  '-x, y, z'
  11  '-y, -x, -z'
  12  'y, x, z'
  13  '-x, y, -z'
  14  'x, -y, z'
  15  'y, x, -z'
  16  '-y, -x, z'
loop_
 _atom_site_type_symbol
 _atom_site_label
 _atom_site_symmetry_multiplicity
 _atom_site_fract_x
 _atom_site_fract_y
 _atom_site_fract_z
 _atom_site_occupancy
  Cu  Cu0  1  0.00000000  0.00000000  0.00000000  1
  Au  Au1  1  0.50000000  0.50000000  0.50000000  1
# generated using pymatgen
data_ID_8
_symmetry_space_group_name_H-M   P4_12_12
_cell_length_a   9.62095226
_cell_length_b   9.62095226
_cell_length_c   2.68611925
_cell_angle_alpha   90.00000000
_cell_angle_beta   90.00000000
_cell_angle_gamma   90.00000000
_symmetry_Int_Tables_number   92
_chemical_formula_structural   CuAu
_cell_volume   248.63451022
_cell_formula_units_Z   8
loop_
 _symmetry_equiv_pos_site_id
 _symmetry_equiv_pos_as_xyz
  1  'x, y, z'
  2  '-y+1/2, x+1/2, z+1/4'
  3  '-x, -y, z+1/2'
  4  'y+1/2, -x+1/2, z+3/4'
  5  'x+1/2, -y+1/2, -z+3/4'
  6  '-y, -x, -z+1/2'
  7  '-x+1/2, y+1/2, -z+1/4'
  8  'y, x, -z'
loop_
 _atom_site_type_symbol
 _atom_site_label
 _atom_site_symmetry_multiplicity
 _atom_site_fract_x
 _atom_site_fract_y
 _atom_site_fract_z
 _atom_site_occupancy
  Cu  Cu0  8  0.01219213  0.83623794  0.50912781  1
  Au  Au1  8  0.15109479  0.34676959  0.69405765  1
# generated using pymatgen
data_ID_9
_symmetry_space_group_name_H-M   Pm-3n
_cell_length_a   6.79699284
_cell_length_b   6.79699284
_cell_length_c   6.79699284
_cell_angle_alpha   90.00000000
_cell_angle_beta   90.00000000
_cell_angle_gamma   90.00000000
_symmetry_Int_Tables_number   223
_chemical_formula_structural   CuAu
_cell_volume   314.01503157
_cell_formula_units_Z   8
loop_
 _symmetry_equiv_pos_site_id
 _symmetry_equiv_pos_as_xyz
  1  'x, y, z'
  2  '-x, -y, -z'
  3  '-y+1/2, x+1/2, z+1/2'
  4  'y+1/2, -x+1/2, -z+1/2'
  5  '-x, -y, z'
  6  'x, y, -z'
  7  'y+1/2, -x+1/2, z+1/2'
  8  '-y+1/2, x+1/2, -z+1/2'
  9  'x, -y, -z'
  10  '-x, y, z'
  11  '-y+1/2, -x+1/2, -z+1/2'
  12  'y+1/2, x+1/2, z+1/2'
  13  '-x, y, -z'
  14  'x, -y, z'
  15  'y+1/2, x+1/2, -z+1/2'
  16  '-y+1/2, -x+1/2, z+1/2'
  17  'z, x, y'
  18  '-z, -x, -y'
  19  'z+1/2, -y+1/2, x+1/2'
  20  '-z+1/2, y+1/2, -x+1/2'
  21  'z, -x, -y'
  22  '-z, x, y'
  23  'z+1/2, y+1/2, -x+1/2'
  24  '-z+1/2, -y+1/2, x+1/2'
  25  '-z, x, -y'
  26  'z, -x, y'
  27  '-z+1/2, -y+1/2, -x+1/2'
  28  'z+1/2, y+1/2, x+1/2'
  29  '-z, -x, y'
  30  'z, x, -y'
  31  '-z+1/2, y+1/2, x+1/2'
  32  'z+1/2, -y+1/2, -x+1/2'
  33  'y, z, x'
  34  '-y, -z, -x'
  35  'x+1/2, z+1/2, -y+1/2'
  36  '-x+1/2, -z+1/2, y+1/2'
  37  '-y, z, -x'
  38  'y, -z, x'
  39  '-x+1/2, z+1/2, y+1/2'
  40  'x+1/2, -z+1/2, -y+1/2'
  41  '-y, -z, x'
  42  'y, z, -x'
  43  '-x+1/2, -z+1/2, -y+1/2'
  44  'x+1/2, z+1/2, y+1/2'
  45  'y, -z, -x'
  46  '-y, z, x'
  47  'x+1/2, -z+1/2, y+1/2'
  48  '-x+1/2, z+1/2, -y+1/2'
loop_
 _atom_site_type_symbol
 _atom_site_label
 _atom_site_symmetry_multiplicity
 _atom_site_fract_x
 _atom_site_fract_y
 _atom_site_fract_z
 _atom_site_occupancy
  Cu  Cu0  8  0.25000000  0.25000000  0.25000000  1
  Au  Au1  6  0.00000000  0.50000000  0.25000000  1
  Au  Au2  2  0.00000000  0.00000000  0.00000000  1
