# generated using pymatgen
data_ID_0
_symmetry_space_group_name_H-M   P6_3/mmc
_cell_length_a   7.99922515
_cell_length_b   7.99922515
_cell_length_c   5.11895661
_cell_angle_alpha   90.00000000
_cell_angle_beta   90.00000000
_cell_angle_gamma   120.00000000
_symmetry_Int_Tables_number   194
_chemical_formula_structural   CuAu
_cell_volume   283.66641590
_cell_formula_units_Z   8
loop_
 _symmetry_equiv_pos_site_id
 _symmetry_equiv_pos_as_xyz
  1  'x, y, z'
  2  '-x, -y, -z'
  3  'x-y, x, z+1/2'
  4  '-x+y, -x, -z+1/2'
  5  '-y, x-y, z'
  6  'y, -x+y, -z'
  7  '-x, -y, z+1/2'
  8  'x, y, -z+1/2'
  9  '-x+y, -x, z'
  10  'x-y, x, -z'
  11  'y, -x+y, z+1/2'
  12  '-y, x-y, -z+1/2'
  13  '-y, -x, -z+1/2'
  14  'y, x, z+1/2'
  15  '-x, -x+y, -z'
  16  'x, x-y, z'
  17  '-x+y, y, -z+1/2'
  18  'x-y, -y, z+1/2'
  19  'y, x, -z'
  20  '-y, -x, z'
  21  'x, x-y, -z+1/2'
  22  '-x, -x+y, z+1/2'
  23  'x-y, -y, -z'
  24  '-x+y, y, z'
loop_
 _atom_site_type_symbol
 _atom_site_label
 _atom_site_symmetry_multiplicity
 _atom_site_fract_x
 _atom_site_fract_y
 _atom_site_fract_z
 _atom_site_occupancy
  Cu  Cu0  6  0.00000000  0.50000000  0.00000000  1
  Cu  Cu1  2  0.33333333  0.66666667  0.25000000  1
  Au  Au2  6  0.19265704  0.38531407  0.75000000  1
  Au  Au3  2  0.00000000  0.00000000  0.25000000  1
# generated using pymatgen
data_ID_1
_symmetry_space_group_name_H-M   P6/mmm
_cell_length_a   10.00426118
_cell_length_b   10.00426118
_cell_length_c   4.97698149
_cell_angle_alpha   90.00000000
_cell_angle_beta   90.00000000
_cell_angle_gamma   120.00000000
_symmetry_Int_Tables_number   191
_chemical_formula_structural   CuAu
_cell_volume   431.38664925
_cell_formula_units_Z   8
loop_
 _symmetry_equiv_pos_site_id
 _symmetry_equiv_pos_as_xyz
  1  'x, y, z'
  2  '-x, -y, -z'
  3  'x-y, x, z'
  4  '-x+y, -x, -z'
  5  '-y, x-y, z'
  6  'y, -x+y, -z'
  7  '-x, -y, z'
  8  'x, y, -z'
  9  '-x+y, -x, z'
  10  'x-y, x, -z'
  11  'y, -x+y, z'
  12  '-y, x-y, -z'
  13  '-y, -x, -z'
  14  'y, x, z'
  15  '-x, -x+y, -z'
  16  'x, x-y, z'
  17  '-x+y, y, -z'
  18  'x-y, -y, z'
  19  'y, x, -z'
  20  '-y, -x, z'
  21  'x, x-y, -z'
  22  '-x, -x+y, z'
  23  'x-y, -y, -z'
  24  '-x+y, y, z'
loop_
 _atom_site_type_symbol
 _atom_site_label
 _atom_site_symmetry_multiplicity
 _atom_site_fract_x
 _atom_site_fract_y
 _atom_site_fract_z
 _atom_site_occupancy
  Cu  Cu0  6  0.25086627  0.50173254  0.50000000  1
  Cu  Cu1  2  0.33333333  0.66666667  0.00000000  1
  Au  Au2  3  0.00000000  0.50000000  0.00000000  1
  Au  Au3  3  0.00000000  0.50000000  0.50000000  1
  Au  Au4  1  0.00000000  0.00000000  0.00000000  1
  Au  Au5  1  0.00000000  0.00000000  0.50000000  1
# generated using pymatgen
data_ID_2
_symmetry_space_group_name_H-M   P4_2
_cell_length_a   6.28805874
_cell_length_b   6.28805874
_cell_length_c   7.33365708
_cell_angle_alpha   90.00000000
_cell_angle_beta   90.00000000
_cell_angle_gamma   90.00000000
_symmetry_Int_Tables_number   77
_chemical_formula_structural   CuAu
_cell_volume   289.97047353
_cell_formula_units_Z   8
loop_
 _symmetry_equiv_pos_site_id
 _symmetry_equiv_pos_as_xyz
  1  'x, y, z'
  2  '-y, x, z+1/2'
  3  '-x, -y, z'
  4  'y, -x, z+1/2'
loop_
 _atom_site_type_symbol
 _atom_site_label
 _atom_site_symmetry_multiplicity
 _atom_site_fract_x
 _atom_site_fract_y
 _atom_site_fract_z
 _atom_site_occupancy
  Cu  Cu0  2  0.00000000  0.50000000  0.16333504  1
  Cu  Cu1  2  0.00000000  0.50000000  0.48236105  1
  Cu  Cu2  2  0.00000000  0.50000000  0.83659910  1
  Cu  Cu3  2  0.50000000  0.50000000  0.41052169  1
  Au  Au4  4  0.13425564  0.83972321  0.00482023  1
  Au  Au5  4  0.27470779  0.69399757  0.65823649  1
# generated using pymatgen
data_ID_3
_symmetry_space_group_name_H-M   P2/m
_cell_length_a   6.41688401
_cell_length_b   7.64548563
_cell_length_c   6.52603768
_cell_angle_alpha   90.00000000
_cell_angle_beta   118.70358563
_cell_angle_gamma   90.00000000
_symmetry_Int_Tables_number   10
_chemical_formula_structural   CuAu
_cell_volume   280.82510552
_cell_formula_units_Z   8
loop_
 _symmetry_equiv_pos_site_id
 _symmetry_equiv_pos_as_xyz
  1  'x, y, z'
  2  '-x, -y, -z'
  3  '-x, y, -z'
  4  'x, -y, z'
loop_
 _atom_site_type_symbol
 _atom_site_label
 _atom_site_symmetry_multiplicity
 _atom_site_fract_x
 _atom_site_fract_y
 _atom_site_fract_z
 _atom_site_occupancy
  Cu  Cu0  4  0.08538856  0.31997180  0.82632298  1
  Cu  Cu1  4  0.21322025  0.16252222  0.54719441  1
  Au  Au2  4  0.34586811  0.31446809  0.27397430  1
  Au  Au3  2  0.50000000  0.16237008  0.00000000  1
  Au  Au4  1  0.00000000  0.00000000  0.00000000  1
  Au  Au5  1  0.50000000  0.50000000  0.00000000  1
# generated using pymatgen
data_ID_4
_symmetry_space_group_name_H-M   P4/nmm
_cell_length_a   13.52591398
_cell_length_b   13.52591398
_cell_length_c   2.56035870
_cell_angle_alpha   90.00000000
_cell_angle_beta   90.00000000
_cell_angle_gamma   90.00000000
_symmetry_Int_Tables_number   129
_chemical_formula_structural   CuAu
_cell_volume   468.41851864
_cell_formula_units_Z   8
loop_
 _symmetry_equiv_pos_site_id
 _symmetry_equiv_pos_as_xyz
  1  'x, y, z'
  2  '-y+1/2, x+1/2, z'
  3  '-x, -y, z'
  4  'y+1/2, -x+1/2, z'
  5  'x+1/2, -y+1/2, -z'
  6  '-y, -x, -z'
  7  '-x+1/2, y+1/2, -z'
  8  'y, x, -z'
  9  '-x+1/2, -y+1/2, -z'
  10  'y, -x, -z'
  11  'x+1/2, y+1/2, -z'
  12  '-y, x, -z'
  13  '-x, y, z'
  14  'y+1/2, x+1/2, z'
  15  'x, -y, z'
  16  '-y+1/2, -x+1/2, z'
loop_
 _atom_site_type_symbol
 _atom_site_label
 _atom_site_symmetry_multiplicity
 _atom_site_fract_x
 _atom_site_fract_y
 _atom_site_fract_z
 _atom_site_occupancy
  Cu  Cu0  8  0.11811168  0.11811168  0.50000000  1
  Au  Au1  4  0.25000000  0.25000000  0.50000000  1
  Au  Au2  2  0.00000000  0.00000000  0.00000000  1
  Au  Au3  2  0.00000000  0.50000000  0.78360303  1
